 xtb: 6.5.0 (unknown)
          08112218563D

 23  0  0     0  0            999 V2000
   -1.4123    3.4084    0.0599 C   0  0  0  0  0  0  0  0  0  0  0  0
   -2.1163    2.2883   -0.0472 C   0  0  0  0  0  0  0  0  0  0  0  0
   -1.5951    0.9253   -0.0304 C   0  0  0  0  0  0  0  0  0  0  0  0
   -2.4990   -0.1380   -0.0139 C   0  0  0  0  0  0  0  0  0  0  0  0
   -2.0676   -1.4553    0.0043 C   0  0  0  0  0  0  0  0  0  0  0  0
   -3.0485   -2.5878    0.0438 C   0  0  0  0  0  0  0  0  0  0  0  0
   -0.7047   -1.7107    0.0027 C   0  0  0  0  0  0  0  0  0  0  0  0
    0.2256   -0.6703   -0.0167 C   0  0  0  0  0  0  0  0  0  0  0  0
    1.6379   -1.0231   -0.0207 C   0  0  0  0  0  0  0  0  0  0  0  0
    2.6915   -0.2214   -0.0001 C   0  0  0  0  0  0  0  0  0  0  0  0
    2.7148    1.1064    0.0289 F   0  0  0  0  0  0  0  0  0  0  0  0
    3.9470   -0.6708   -0.0037 F   0  0  0  0  0  0  0  0  0  0  0  0
   -0.2316    0.6445   -0.0347 C   0  0  0  0  0  0  0  0  0  0  0  0
   -1.8913    4.3723    0.0402 H   0  0  0  0  0  0  0  0  0  0  0  0
   -0.3422    3.4182    0.1750 H   0  0  0  0  0  0  0  0  0  0  0  0
   -3.1931    2.3541   -0.1480 H   0  0  0  0  0  0  0  0  0  0  0  0
   -3.5596    0.0721   -0.0134 H   0  0  0  0  0  0  0  0  0  0  0  0
   -4.0346   -2.2605   -0.2757 H   0  0  0  0  0  0  0  0  0  0  0  0
   -3.1302   -2.9736    1.0603 H   0  0  0  0  0  0  0  0  0  0  0  0
   -2.7222   -3.4036   -0.5978 H   0  0  0  0  0  0  0  0  0  0  0  0
   -0.3572   -2.7340    0.0149 H   0  0  0  0  0  0  0  0  0  0  0  0
    1.8696   -2.0786   -0.0382 H   0  0  0  0  0  0  0  0  0  0  0  0
    0.4725    1.4575   -0.0616 H   0  0  0  0  0  0  0  0  0  0  0  0
M  END
