
  xtb     02032210503D
 xtb: 6.4.1 (23d549d)
 20 20  0     0  0            999 V2000
    1.8722   -0.8985   -1.0295 c   0  0  0  0  0  0  0  0  0  0  0  0
    2.3803   -0.0519   -0.1445 c   0  0  0  0  0  0  0  0  0  0  0  0
    3.0330   -0.4211    1.0946 c   0  0  0  0  0  0  0  0  0  0  0  0
    4.1057    0.2795    1.6791 c   0  0  0  0  0  0  0  0  0  0  0  0
    4.5614   -0.3404    2.7479 n   0  0  0  0  0  0  0  0  0  0  0  0
    3.8215   -1.4296    2.8930 n   0  0  0  0  0  0  0  0  0  0  0  0
    4.0515   -2.3109    4.0000 c   0  0  0  0  0  0  0  0  0  0  0  0
    2.8678   -1.5320    1.9277 c   0  0  0  0  0  0  0  0  0  0  0  0
    1.9206   -2.6214    1.9507 c   0  0  0  0  0  0  0  0  0  0  0  0
    0.6522   -2.5548    1.5727 c   0  0  0  0  0  0  0  0  0  0  0  0
    0.0041   -1.4944    1.1186 f   0  0  0  0  0  0  0  0  0  0  0  0
   -0.1760   -3.5979    1.6143 f   0  0  0  0  0  0  0  0  0  0  0  0
    1.4279   -0.5528   -1.9464 h   0  0  0  0  0  0  0  0  0  0  0  0
    1.8908   -1.9650   -0.8795 h   0  0  0  0  0  0  0  0  0  0  0  0
    2.3819    1.0107   -0.3519 h   0  0  0  0  0  0  0  0  0  0  0  0
    4.5558    1.1926    1.3449 h   0  0  0  0  0  0  0  0  0  0  0  0
    4.8601   -1.8830    4.5887 h   0  0  0  0  0  0  0  0  0  0  0  0
    4.3469   -3.3037    3.6535 h   0  0  0  0  0  0  0  0  0  0  0  0
    3.1577   -2.3987    4.6205 h   0  0  0  0  0  0  0  0  0  0  0  0
    2.2534   -3.5712    2.3438 h   0  0  0  0  0  0  0  0  0  0  0  0
  1  2  2  0  0  0  0
  2  3  1  0  0  0  0
  3  4  4  0  0  0  0
  4  5  2  0  0  0  0
  5  6  4  0  0  0  0
  6  7  1  0  0  0  0
  3  8  4  0  0  0  0
  6  8  4  0  0  0  0
  8  9  1  0  0  0  0
  9 10  2  0  0  0  0
 10 11  1  0  0  0  0
 10 12  1  0  0  0  0
  1 13  1  0  0  0  0
  1 14  1  0  0  0  0
  2 15  1  0  0  0  0
  4 16  1  0  0  0  0
  7 17  1  0  0  0  0
  7 18  1  0  0  0  0
  7 19  1  0  0  0  0
  9 20  1  0  0  0  0
M  END
