
  xtb     02012214093D
 xtb: 6.4.1 (23d549d)
 18 18  0     0  0            999 V2000
    1.1893   -0.0669    0.0415 c   0  0  0  0  0  0  0  0  0  0  0  0
    2.6822    0.0290    0.0429 c   0  0  0  0  0  0  0  0  0  0  0  0
    3.3666    1.2337    0.0386 c   0  0  0  0  0  0  0  0  0  0  0  0
    4.6905    1.2910    0.0419 n   0  0  0  0  0  0  0  0  0  0  0  0
    5.3699    0.1443    0.0483 c   0  0  0  0  0  0  0  0  0  0  0  0
    6.7231    0.2649    0.0482 n   0  0  0  0  0  0  0  0  0  0  0  0
    4.6842   -1.0940    0.0505 c   0  0  0  0  0  0  0  0  0  0  0  0
    5.3623   -2.4329    0.0550 c   0  0  0  0  0  0  0  0  0  0  0  0
    3.3671   -1.1163    0.0484 n   0  0  0  0  0  0  0  0  0  0  0  0
    0.7413    0.9229    0.0345 h   0  0  0  0  0  0  0  0  0  0  0  0
    0.8520   -0.6090    0.9231 h   0  0  0  0  0  0  0  0  0  0  0  0
    0.8544   -0.6205   -0.8339 h   0  0  0  0  0  0  0  0  0  0  0  0
    2.8561    2.1878    0.0329 h   0  0  0  0  0  0  0  0  0  0  0  0
    7.1048    1.1925    0.0584 h   0  0  0  0  0  0  0  0  0  0  0  0
    7.3312   -0.5289    0.0725 h   0  0  0  0  0  0  0  0  0  0  0  0
    6.4450   -2.3537    0.0506 h   0  0  0  0  0  0  0  0  0  0  0  0
    5.0460   -2.9994   -0.8190 h   0  0  0  0  0  0  0  0  0  0  0  0
    5.0520   -2.9912    0.9364 h   0  0  0  0  0  0  0  0  0  0  0  0
  1  2  1  0  0  0  0
  2  3  4  0  0  0  0
  3  4  4  0  0  0  0
  4  5  4  0  0  0  0
  5  6  4  0  0  0  0
  5  7  4  0  0  0  0
  7  8  1  0  0  0  0
  2  9  4  0  0  0  0
  7  9  4  0  0  0  0
  1 10  1  0  0  0  0
  1 11  1  0  0  0  0
  1 12  1  0  0  0  0
  3 13  1  0  0  0  0
  6 14  1  0  0  0  0
  6 15  1  0  0  0  0
  8 16  1  0  0  0  0
  8 17  1  0  0  0  0
  8 18  1  0  0  0  0
M  END
