
  xtb     02032211203D
 xtb: 6.4.1 (23d549d)
 31 31  0     0  0            999 V2000
    1.9695    1.0739    0.5388 c   0  0  0  0  0  0  0  0  0  0  0  0
    3.0047    0.4455   -0.0033 c   0  0  0  0  0  0  0  0  0  0  0  0
    3.4148    0.6332   -1.3755 c   0  0  0  0  0  0  0  0  0  0  0  0
    4.4670   -0.0447   -1.9135 n   0  0  0  0  0  0  0  0  0  0  0  0
    4.5372    0.3655   -3.1538 c   0  0  0  0  0  0  0  0  0  0  0  0
    5.4996   -0.0609   -4.1368 c   0  0  0  0  0  0  0  0  0  0  0  0
    6.4458   -0.9473   -3.8437 c   0  0  0  0  0  0  0  0  0  0  0  0
    3.5321    1.2938   -3.3723 n   0  0  0  0  0  0  0  0  0  0  0  0
    3.2007    2.0131   -4.5326 c   0  0  0  0  0  0  0  0  0  0  0  0
    3.7632    1.8349   -5.5803 o   0  0  0  0  0  0  0  0  0  0  0  0
    2.2298    2.8521   -4.2601 o   0  0  0  0  0  0  0  0  0  0  0  0
    1.6695    3.7138   -5.2881 c   0  0  0  0  0  0  0  0  0  0  0  0
    1.0346    2.8631   -6.3864 c   0  0  0  0  0  0  0  0  0  0  0  0
    0.6083    4.5208   -4.5425 c   0  0  0  0  0  0  0  0  0  0  0  0
    2.7509    4.6325   -5.8534 c   0  0  0  0  0  0  0  0  0  0  0  0
    2.8348    1.4480   -2.2299 n   0  0  0  0  0  0  0  0  0  0  0  0
    1.6828    0.9148    1.5639 h   0  0  0  0  0  0  0  0  0  0  0  0
    1.3839    1.7670   -0.0404 h   0  0  0  0  0  0  0  0  0  0  0  0
    3.6108   -0.2571    0.5501 h   0  0  0  0  0  0  0  0  0  0  0  0
    5.4056    0.3800   -5.1171 h   0  0  0  0  0  0  0  0  0  0  0  0
    6.5141   -1.3712   -2.8565 h   0  0  0  0  0  0  0  0  0  0  0  0
    7.1659   -1.2657   -4.5769 h   0  0  0  0  0  0  0  0  0  0  0  0
    0.2970    2.1885   -5.9567 h   0  0  0  0  0  0  0  0  0  0  0  0
    1.7919    2.2764   -6.8999 h   0  0  0  0  0  0  0  0  0  0  0  0
    0.5426    3.5086   -7.1084 h   0  0  0  0  0  0  0  0  0  0  0  0
   -0.1246    3.8510   -4.1016 h   0  0  0  0  0  0  0  0  0  0  0  0
    0.1073    5.1991   -5.2267 h   0  0  0  0  0  0  0  0  0  0  0  0
    1.0714    5.0951   -3.7448 h   0  0  0  0  0  0  0  0  0  0  0  0
    3.5032    4.0562   -6.3849 h   0  0  0  0  0  0  0  0  0  0  0  0
    3.2324    5.1829   -5.0482 h   0  0  0  0  0  0  0  0  0  0  0  0
    2.3005    5.3409   -6.5428 h   0  0  0  0  0  0  0  0  0  0  0  0
  1  2  2  0  0  0  0
  2  3  1  0  0  0  0
  3  4  4  0  0  0  0
  4  5  2  0  0  0  0
  5  6  1  0  0  0  0
  6  7  2  0  0  0  0
  5  8  1  0  0  0  0
  8  9  1  0  0  0  0
  9 10  2  0  0  0  0
  9 11  1  0  0  0  0
 11 12  1  0  0  0  0
 12 13  1  0  0  0  0
 12 14  1  0  0  0  0
 12 15  1  0  0  0  0
  3 16  4  0  0  0  0
  8 16  1  0  0  0  0
  1 17  1  0  0  0  0
  1 18  1  0  0  0  0
  2 19  1  0  0  0  0
  6 20  1  0  0  0  0
  7 21  1  0  0  0  0
  7 22  1  0  0  0  0
 13 23  1  0  0  0  0
 13 24  1  0  0  0  0
 13 25  1  0  0  0  0
 14 26  1  0  0  0  0
 14 27  1  0  0  0  0
 14 28  1  0  0  0  0
 15 29  1  0  0  0  0
 15 30  1  0  0  0  0
 15 31  1  0  0  0  0
M  END
