
 OpenBabel02012214053D

 39 39  0  0  0  0  0  0  0  0999 V2000
    7.0358   -0.4595    4.4641 C   0  0  0  0  0  0  0  0  0  0  0  0
    6.5618   -0.3591    3.0238 C   0  0  0  0  0  0  0  0  0  0  0  0
    7.0465    0.9326    2.3736 C   0  0  0  0  0  0  0  0  0  0  0  0
    6.5653    1.0465    0.9266 C   0  0  0  0  0  0  0  0  0  0  0  0
    7.0837    2.3381    0.3013 C   0  0  0  0  0  0  0  0  0  0  0  0
    6.6617    2.4806   -1.1612 C   0  0  0  0  0  0  0  0  0  0  0  0
    7.1644    3.7833   -1.7904 C   0  0  0  0  0  0  0  0  0  0  0  0
    8.6918    3.8744   -1.8106 C   0  0  0  0  0  0  0  0  0  0  0  0
    9.1910    5.1436   -2.4336 C   0  0  0  0  0  0  0  0  0  0  0  0
    9.5035    5.2716   -3.8241 C   0  0  0  0  0  0  0  0  0  0  0  0
   10.0037    6.5126   -4.1481 C   0  0  0  0  0  0  0  0  0  0  0  0
   10.4839    6.9966   -5.4712 C   0  0  0  0  0  0  0  0  0  0  0  0
   10.0505    7.5426   -2.7890 S   0  0  0  0  0  0  0  0  0  0  0  0
    9.4357    6.3263   -1.7522 C   0  0  0  0  0  0  0  0  0  0  0  0
    9.2420    6.6183   -0.2999 C   0  0  0  0  0  0  0  0  0  0  0  0
    6.6778   -1.3882    4.9177 H   0  0  0  0  0  0  0  0  0  0  0  0
    6.6590    0.3786    5.0595 H   0  0  0  0  0  0  0  0  0  0  0  0
    8.1292   -0.4536    4.5184 H   0  0  0  0  0  0  0  0  0  0  0  0
    5.4671   -0.4004    2.9991 H   0  0  0  0  0  0  0  0  0  0  0  0
    6.9342   -1.2218    2.4594 H   0  0  0  0  0  0  0  0  0  0  0  0
    8.1431    0.9667    2.3999 H   0  0  0  0  0  0  0  0  0  0  0  0
    6.6858    1.7949    2.9482 H   0  0  0  0  0  0  0  0  0  0  0  0
    5.4700    1.0278    0.8920 H   0  0  0  0  0  0  0  0  0  0  0  0
    6.9267    0.1870    0.3489 H   0  0  0  0  0  0  0  0  0  0  0  0
    8.1756    2.3350    0.3806 H   0  0  0  0  0  0  0  0  0  0  0  0
    6.7196    3.2006    0.8727 H   0  0  0  0  0  0  0  0  0  0  0  0
    5.5672    2.4583   -1.2281 H   0  0  0  0  0  0  0  0  0  0  0  0
    7.0330    1.6271   -1.7414 H   0  0  0  0  0  0  0  0  0  0  0  0
    6.7411    4.6385   -1.2486 H   0  0  0  0  0  0  0  0  0  0  0  0
    6.7801    3.8479   -2.8166 H   0  0  0  0  0  0  0  0  0  0  0  0
    9.1016    3.0165   -2.3585 H   0  0  0  0  0  0  0  0  0  0  0  0
    9.0993    3.8124   -0.7965 H   0  0  0  0  0  0  0  0  0  0  0  0
    9.3872    4.4729   -4.5464 H   0  0  0  0  0  0  0  0  0  0  0  0
   10.3304    6.2337   -6.2419 H   0  0  0  0  0  0  0  0  0  0  0  0
   11.5538    7.2209   -5.4318 H   0  0  0  0  0  0  0  0  0  0  0  0
    9.9446    7.8977   -5.7788 H   0  0  0  0  0  0  0  0  0  0  0  0
    9.5486    7.6340   -0.0303 H   0  0  0  0  0  0  0  0  0  0  0  0
    9.8296    5.9222    0.3078 H   0  0  0  0  0  0  0  0  0  0  0  0
    8.1873    6.5039   -0.0287 H   0  0  0  0  0  0  0  0  0  0  0  0
  1  2  1  0  0  0  0
  1 16  1  0  0  0  0
  1 17  1  0  0  0  0
  1 18  1  0  0  0  0
  2  3  1  0  0  0  0
  2 19  1  0  0  0  0
  2 20  1  0  0  0  0
  3  4  1  0  0  0  0
  3 21  1  0  0  0  0
  3 22  1  0  0  0  0
  4  5  1  0  0  0  0
  4 23  1  0  0  0  0
  4 24  1  0  0  0  0
  5  6  1  0  0  0  0
  5 25  1  0  0  0  0
  5 26  1  0  0  0  0
  6  7  1  0  0  0  0
  6 27  1  0  0  0  0
  6 28  1  0  0  0  0
  7  8  1  0  0  0  0
  7 29  1  0  0  0  0
  7 30  1  0  0  0  0
  8  9  1  0  0  0  0
  8 31  1  0  0  0  0
  8 32  1  0  0  0  0
  9 10  1  0  0  0  0
  9 14  2  0  0  0  0
 10 11  2  0  0  0  0
 10 33  1  0  0  0  0
 11 12  1  0  0  0  0
 11 13  1  0  0  0  0
 12 34  1  0  0  0  0
 12 35  1  0  0  0  0
 12 36  1  0  0  0  0
 13 14  1  0  0  0  0
 14 15  1  0  0  0  0
 15 37  1  0  0  0  0
 15 38  1  0  0  0  0
 15 39  1  0  0  0  0
M  END
