
  xtb     02012214053D
 xtb: 6.4.1 (23d549d)
 39 39  0     0  0            999 V2000
    4.4439    2.6387   -5.4841 c   0  0  0  0  0  0  0  0  0  0  0  0
    3.8617    1.7332   -4.4041 c   0  0  0  0  0  0  0  0  0  0  0  0
    4.5494    1.9012   -3.0486 c   0  0  0  0  0  0  0  0  0  0  0  0
    6.0036    1.4365   -3.0623 c   0  0  0  0  0  0  0  0  0  0  0  0
    6.6532    1.4125   -1.6786 c   0  0  0  0  0  0  0  0  0  0  0  0
    6.6758    2.7555   -0.9450 c   0  0  0  0  0  0  0  0  0  0  0  0
    7.3566    3.9122   -1.6789 c   0  0  0  0  0  0  0  0  0  0  0  0
    8.8779    3.7721   -1.8254 c   0  0  0  0  0  0  0  0  0  0  0  0
    9.2943    2.8134   -2.8980 c   0  0  0  0  0  0  0  0  0  0  0  0
    8.9366    2.9889   -4.2639 c   0  0  0  0  0  0  0  0  0  0  0  0
    9.3995    2.0169   -5.0875 c   0  0  0  0  0  0  0  0  0  0  0  0
    9.2072    1.8683   -6.5548 c   0  0  0  0  0  0  0  0  0  0  0  0
   10.3165    0.8436   -4.1936 s   0  0  0  0  0  0  0  0  0  0  0  0
   10.0540    1.7001   -2.7026 c   0  0  0  0  0  0  0  0  0  0  0  0
   10.6515    1.1795   -1.4395 c   0  0  0  0  0  0  0  0  0  0  0  0
    3.8720    2.5454   -6.4048 h   0  0  0  0  0  0  0  0  0  0  0  0
    5.4764    2.3749   -5.6987 h   0  0  0  0  0  0  0  0  0  0  0  0
    4.4112    3.6788   -5.1656 h   0  0  0  0  0  0  0  0  0  0  0  0
    3.9423    0.6915   -4.7238 h   0  0  0  0  0  0  0  0  0  0  0  0
    2.7991    1.9612   -4.2878 h   0  0  0  0  0  0  0  0  0  0  0  0
    4.0003    1.3217   -2.3016 h   0  0  0  0  0  0  0  0  0  0  0  0
    4.4982    2.9521   -2.7573 h   0  0  0  0  0  0  0  0  0  0  0  0
    6.5918    2.0731   -3.7222 h   0  0  0  0  0  0  0  0  0  0  0  0
    6.0446    0.4229   -3.4703 h   0  0  0  0  0  0  0  0  0  0  0  0
    7.6732    1.0445   -1.7905 h   0  0  0  0  0  0  0  0  0  0  0  0
    6.1143    0.6987   -1.0487 h   0  0  0  0  0  0  0  0  0  0  0  0
    7.1769    2.6097    0.0163 h   0  0  0  0  0  0  0  0  0  0  0  0
    5.6473    3.0525   -0.7266 h   0  0  0  0  0  0  0  0  0  0  0  0
    7.1603    4.8238   -1.1072 h   0  0  0  0  0  0  0  0  0  0  0  0
    6.9050    4.0427   -2.6621 h   0  0  0  0  0  0  0  0  0  0  0  0
    9.3072    3.4689   -0.8695 h   0  0  0  0  0  0  0  0  0  0  0  0
    9.2870    4.7562   -2.0759 h   0  0  0  0  0  0  0  0  0  0  0  0
    8.3598    3.8273   -4.6160 h   0  0  0  0  0  0  0  0  0  0  0  0
    8.6451    2.7147   -6.9433 h   0  0  0  0  0  0  0  0  0  0  0  0
    8.6613    0.9516   -6.7800 h   0  0  0  0  0  0  0  0  0  0  0  0
   10.1673    1.8183   -7.0678 h   0  0  0  0  0  0  0  0  0  0  0  0
   11.1027    0.2057   -1.6131 h   0  0  0  0  0  0  0  0  0  0  0  0
    9.8940    1.0770   -0.6622 h   0  0  0  0  0  0  0  0  0  0  0  0
   11.4247    1.8556   -1.0718 h   0  0  0  0  0  0  0  0  0  0  0  0
  1  2  1  0  0  0  0
  2  3  1  0  0  0  0
  3  4  1  0  0  0  0
  4  5  1  0  0  0  0
  5  6  1  0  0  0  0
  6  7  1  0  0  0  0
  7  8  1  0  0  0  0
  8  9  1  0  0  0  0
  9 10  4  0  0  0  0
 10 11  2  0  0  0  0
 11 12  1  0  0  0  0
 11 13  1  0  0  0  0
  9 14  2  0  0  0  0
 13 14  1  0  0  0  0
 14 15  1  0  0  0  0
  1 16  1  0  0  0  0
  1 17  1  0  0  0  0
  1 18  1  0  0  0  0
  2 19  1  0  0  0  0
  2 20  1  0  0  0  0
  3 21  1  0  0  0  0
  3 22  1  0  0  0  0
  4 23  1  0  0  0  0
  4 24  1  0  0  0  0
  5 25  1  0  0  0  0
  5 26  1  0  0  0  0
  6 27  1  0  0  0  0
  6 28  1  0  0  0  0
  7 29  1  0  0  0  0
  7 30  1  0  0  0  0
  8 31  1  0  0  0  0
  8 32  1  0  0  0  0
 10 33  1  0  0  0  0
 12 34  1  0  0  0  0
 12 35  1  0  0  0  0
 12 36  1  0  0  0  0
 15 37  1  0  0  0  0
 15 38  1  0  0  0  0
 15 39  1  0  0  0  0
M  END
