
 OpenBabel02012213463D

 18 18  0  0  0  0  0  0  0  0999 V2000
    0.9827   -0.1793   -0.1248 C   0  0  0  0  0  0  0  0  0  0  0  0
    2.4855   -0.0884    0.0088 C   0  0  0  0  0  0  0  0  0  0  0  0
    3.2161    1.1341    0.1098 C   0  0  0  0  0  0  0  0  0  0  0  0
    2.6001    2.5132    0.0954 C   0  0  0  0  0  0  0  0  0  0  0  0
    4.6166    1.0833    0.2322 C   0  0  0  0  0  0  0  0  0  0  0  0
    5.2925   -0.1353    0.2548 C   0  0  0  0  0  0  0  0  0  0  0  0
    4.5829   -1.3274    0.1550 C   0  0  0  0  0  0  0  0  0  0  0  0
    3.1933   -1.3085    0.0331 C   0  0  0  0  0  0  0  0  0  0  0  0
    2.5311   -2.4906   -0.0616 F   0  0  0  0  0  0  0  0  0  0  0  0
    0.4485    0.7821   -0.1378 H   0  0  0  0  0  0  0  0  0  0  0  0
    0.5749   -0.7645    0.7266 H   0  0  0  0  0  0  0  0  0  0  0  0
    0.7301   -0.7045   -1.0701 H   0  0  0  0  0  0  0  0  0  0  0  0
    1.5049    2.5431   -0.0029 H   0  0  0  0  0  0  0  0  0  0  0  0
    3.0188    3.0906   -0.7560 H   0  0  0  0  0  0  0  0  0  0  0  0
    2.8576    3.0385    1.0395 H   0  0  0  0  0  0  0  0  0  0  0  0
    5.1915    1.9986    0.3108 H   0  0  0  0  0  0  0  0  0  0  0  0
    6.3707   -0.1543    0.3495 H   0  0  0  0  0  0  0  0  0  0  0  0
    5.1121   -2.2717    0.1726 H   0  0  0  0  0  0  0  0  0  0  0  0
  1  2  1  0  0  0  0
  1 10  1  0  0  0  0
  1 11  1  0  0  0  0
  1 12  1  0  0  0  0
  2  3  1  0  0  0  0
  2  8  2  0  0  0  0
  3  4  1  0  0  0  0
  3  5  2  0  0  0  0
  4 13  1  0  0  0  0
  4 14  1  0  0  0  0
  4 15  1  0  0  0  0
  5  6  1  0  0  0  0
  5 16  1  0  0  0  0
  6  7  2  0  0  0  0
  6 17  1  0  0  0  0
  7  8  1  0  0  0  0
  7 18  1  0  0  0  0
  8  9  1  0  0  0  0
M  END
