
  xtb     02032210503D
 xtb: 6.4.1 (23d549d)
 20 20  0     0  0            999 V2000
    1.2107    0.2064    0.6807 c   0  0  0  0  0  0  0  0  0  0  0  0
    2.0424   -0.3014   -0.2204 c   0  0  0  0  0  0  0  0  0  0  0  0
    2.7761    0.4290   -1.2500 c   0  0  0  0  0  0  0  0  0  0  0  0
    3.8932   -0.1732   -1.8338 c   0  0  0  0  0  0  0  0  0  0  0  0
    4.6254    0.4607   -2.8186 c   0  0  0  0  0  0  0  0  0  0  0  0
    4.2644    1.7234   -3.2480 c   0  0  0  0  0  0  0  0  0  0  0  0
    3.1645    2.3705   -2.6878 c   0  0  0  0  0  0  0  0  0  0  0  0
    2.8025    3.7081   -3.1556 c   0  0  0  0  0  0  0  0  0  0  0  0
    2.3730    4.7034   -2.3969 c   0  0  0  0  0  0  0  0  0  0  0  0
    2.2316    4.7083   -1.0825 f   0  0  0  0  0  0  0  0  0  0  0  0
    2.0669    5.9068   -2.8761 f   0  0  0  0  0  0  0  0  0  0  0  0
    2.4303    1.7004   -1.7106 c   0  0  0  0  0  0  0  0  0  0  0  0
    1.3077    2.2925   -1.2569 f   0  0  0  0  0  0  0  0  0  0  0  0
    0.7307   -0.4280    1.4068 h   0  0  0  0  0  0  0  0  0  0  0  0
    0.9765    1.2539    0.7396 h   0  0  0  0  0  0  0  0  0  0  0  0
    2.2540   -1.3637   -0.2063 h   0  0  0  0  0  0  0  0  0  0  0  0
    4.1822   -1.1589   -1.5008 h   0  0  0  0  0  0  0  0  0  0  0  0
    5.4798   -0.0323   -3.2563 h   0  0  0  0  0  0  0  0  0  0  0  0
    4.8344    2.2255   -4.0144 h   0  0  0  0  0  0  0  0  0  0  0  0
    2.9243    3.9156   -4.2078 h   0  0  0  0  0  0  0  0  0  0  0  0
  1  2  2  0  0  0  0
  2  3  1  0  0  0  0
  3  4  4  0  0  0  0
  4  5  4  0  0  0  0
  5  6  4  0  0  0  0
  6  7  4  0  0  0  0
  7  8  1  0  0  0  0
  8  9  2  0  0  0  0
  9 10  1  0  0  0  0
  9 11  1  0  0  0  0
  3 12  4  0  0  0  0
  7 12  4  0  0  0  0
 12 13  1  0  0  0  0
  1 14  1  0  0  0  0
  1 15  1  0  0  0  0
  2 16  1  0  0  0  0
  4 17  1  0  0  0  0
  5 18  1  0  0  0  0
  6 19  1  0  0  0  0
  8 20  1  0  0  0  0
M  END
