
 OpenBabel02012213403D

 23 23  0  0  0  0  0  0  0  0999 V2000
    1.0302   -0.3667    0.3219 C   0  0  0  0  0  0  0  0  0  0  0  0
    2.4079   -0.0605   -0.0481 N   0  0  0  0  0  0  0  0  0  0  0  0
    3.1037    1.1503    0.3481 C   0  0  0  0  0  0  0  0  0  0  0  0
    2.5204    2.1263    1.1965 C   0  0  0  0  0  0  0  0  0  0  0  0
    3.2209    3.2807    1.5608 C   0  0  0  0  0  0  0  0  0  0  0  0
    4.5201    3.5024    1.0946 C   0  0  0  0  0  0  0  0  0  0  0  0
    5.2778    4.7388    1.4802 C   0  0  0  0  0  0  0  0  0  0  0  0
    5.1157    2.5549    0.2597 C   0  0  0  0  0  0  0  0  0  0  0  0
    4.4235    1.3983   -0.1071 C   0  0  0  0  0  0  0  0  0  0  0  0
    3.0829   -1.0586   -0.8666 C   0  0  0  0  0  0  0  0  0  0  0  0
    0.5258    0.4033    0.9205 H   0  0  0  0  0  0  0  0  0  0  0  0
    1.0044   -1.3107    0.9066 H   0  0  0  0  0  0  0  0  0  0  0  0
    0.4229   -0.5006   -0.5987 H   0  0  0  0  0  0  0  0  0  0  0  0
    1.5309    2.0382    1.6049 H   0  0  0  0  0  0  0  0  0  0  0  0
    2.7431    4.0034    2.2111 H   0  0  0  0  0  0  0  0  0  0  0  0
    4.6775    5.3942    2.1466 H   0  0  0  0  0  0  0  0  0  0  0  0
    5.5426    5.3136    0.5679 H   0  0  0  0  0  0  0  0  0  0  0  0
    6.2094    4.4544    2.0137 H   0  0  0  0  0  0  0  0  0  0  0  0
    6.1222    2.7110   -0.1096 H   0  0  0  0  0  0  0  0  0  0  0  0
    4.9405    0.7055   -0.7545 H   0  0  0  0  0  0  0  0  0  0  0  0
    2.4243   -1.9293   -1.0804 H   0  0  0  0  0  0  0  0  0  0  0  0
    3.9806   -1.4397   -0.3350 H   0  0  0  0  0  0  0  0  0  0  0  0
    3.3769   -0.6166   -1.8420 H   0  0  0  0  0  0  0  0  0  0  0  0
  1  2  1  0  0  0  0
  1 11  1  0  0  0  0
  1 12  1  0  0  0  0
  1 13  1  0  0  0  0
  2  3  1  0  0  0  0
  2 10  1  0  0  0  0
  3  4  1  0  0  0  0
  3  9  2  0  0  0  0
  4  5  2  0  0  0  0
  4 14  1  0  0  0  0
  5  6  1  0  0  0  0
  5 15  1  0  0  0  0
  6  7  1  0  0  0  0
  6  8  2  0  0  0  0
  7 16  1  0  0  0  0
  7 17  1  0  0  0  0
  7 18  1  0  0  0  0
  8  9  1  0  0  0  0
  8 19  1  0  0  0  0
  9 20  1  0  0  0  0
 10 21  1  0  0  0  0
 10 22  1  0  0  0  0
 10 23  1  0  0  0  0
M  END
