
  xtb     02012213403D
 xtb: 6.4.1 (23d549d)
 23 23  0     0  0            999 V2000
    2.7293   -0.7274   -1.2243 c   0  0  0  0  0  0  0  0  0  0  0  0
    2.4598   -0.0567    0.0233 n   0  0  0  0  0  0  0  0  0  0  0  0
    3.1233    1.0992    0.3655 c   0  0  0  0  0  0  0  0  0  0  0  0
    2.5945    2.0077    1.2888 c   0  0  0  0  0  0  0  0  0  0  0  0
    3.2880    3.1494    1.6403 c   0  0  0  0  0  0  0  0  0  0  0  0
    4.5259    3.4458    1.0899 c   0  0  0  0  0  0  0  0  0  0  0  0
    5.2817    4.6836    1.4715 c   0  0  0  0  0  0  0  0  0  0  0  0
    5.0528    2.5466    0.1705 c   0  0  0  0  0  0  0  0  0  0  0  0
    4.3769    1.3983   -0.1845 c   0  0  0  0  0  0  0  0  0  0  0  0
    1.3086   -0.5036    0.7625 c   0  0  0  0  0  0  0  0  0  0  0  0
    3.0737   -0.0168   -1.9764 h   0  0  0  0  0  0  0  0  0  0  0  0
    1.8134   -1.1890   -1.5944 h   0  0  0  0  0  0  0  0  0  0  0  0
    3.4881   -1.5111   -1.1091 h   0  0  0  0  0  0  0  0  0  0  0  0
    1.6250    1.8368    1.7293 h   0  0  0  0  0  0  0  0  0  0  0  0
    2.8461    3.8297    2.3556 h   0  0  0  0  0  0  0  0  0  0  0  0
    4.6876    5.3118    2.1310 h   0  0  0  0  0  0  0  0  0  0  0  0
    5.5460    5.2609    0.5861 h   0  0  0  0  0  0  0  0  0  0  0  0
    6.2068    4.4224    1.9860 h   0  0  0  0  0  0  0  0  0  0  0  0
    6.0192    2.7466   -0.2720 h   0  0  0  0  0  0  0  0  0  0  0  0
    4.8382    0.7175   -0.8828 h   0  0  0  0  0  0  0  0  0  0  0  0
    1.1758   -1.5728    0.5985 h   0  0  0  0  0  0  0  0  0  0  0  0
    0.3861    0.0111    0.4608 h   0  0  0  0  0  0  0  0  0  0  0  0
    1.4651   -0.3456    1.8295 h   0  0  0  0  0  0  0  0  0  0  0  0
  1  2  1  0  0  0  0
  2  3  1  0  0  0  0
  3  4  4  0  0  0  0
  4  5  4  0  0  0  0
  5  6  4  0  0  0  0
  6  7  1  0  0  0  0
  6  8  4  0  0  0  0
  3  9  4  0  0  0  0
  8  9  4  0  0  0  0
  2 10  1  0  0  0  0
  1 11  1  0  0  0  0
  1 12  1  0  0  0  0
  1 13  1  0  0  0  0
  4 14  1  0  0  0  0
  5 15  1  0  0  0  0
  7 16  1  0  0  0  0
  7 17  1  0  0  0  0
  7 18  1  0  0  0  0
  8 19  1  0  0  0  0
  9 20  1  0  0  0  0
 10 21  1  0  0  0  0
 10 22  1  0  0  0  0
 10 23  1  0  0  0  0
M  END
