
 OpenBabel02032211093D

 24 24  0  0  0  0  0  0  0  0999 V2000
    2.3960   -1.3216   -0.8795 C   0  0  0  0  0  0  0  0  0  0  0  0
    2.4578   -0.1653   -0.2015 C   0  0  0  0  0  0  0  0  0  0  0  0
    3.2114    1.0287   -0.6527 C   0  0  0  0  0  0  0  0  0  0  0  0
    4.3213    0.9418   -1.5028 C   0  0  0  0  0  0  0  0  0  0  0  0
    4.9895    2.0953   -1.9163 C   0  0  0  0  0  0  0  0  0  0  0  0
    4.5771    3.3656   -1.4847 C   0  0  0  0  0  0  0  0  0  0  0  0
    5.3106    4.5820   -1.9389 C   0  0  0  0  0  0  0  0  0  0  0  0
    5.9378    4.6894   -3.1237 C   0  0  0  0  0  0  0  0  0  0  0  0
    3.4831    3.4511   -0.5861 C   0  0  0  0  0  0  0  0  0  0  0  0
    2.9876    4.7562   -0.0502 C   0  0  0  0  0  0  0  0  0  0  0  0
    3.6379    5.1523    1.2040 C   0  0  0  0  0  0  0  0  0  0  0  0
    4.1496    5.4670    2.1935 N   0  0  0  0  0  0  0  0  0  0  0  0
    2.8086    2.2859   -0.1915 C   0  0  0  0  0  0  0  0  0  0  0  0
    1.8029   -2.1441   -0.4904 H   0  0  0  0  0  0  0  0  0  0  0  0
    2.8844   -1.4651   -1.8376 H   0  0  0  0  0  0  0  0  0  0  0  0
    1.8956   -0.0786    0.7222 H   0  0  0  0  0  0  0  0  0  0  0  0
    4.6959   -0.0181   -1.8259 H   0  0  0  0  0  0  0  0  0  0  0  0
    5.8592    1.9865   -2.5461 H   0  0  0  0  0  0  0  0  0  0  0  0
    5.3255    5.4428   -1.2839 H   0  0  0  0  0  0  0  0  0  0  0  0
    5.9340    3.8992   -3.8695 H   0  0  0  0  0  0  0  0  0  0  0  0
    6.4446    5.6149   -3.3822 H   0  0  0  0  0  0  0  0  0  0  0  0
    1.8834    4.7520    0.1259 H   0  0  0  0  0  0  0  0  0  0  0  0
    3.0235    5.6000   -0.7729 H   0  0  0  0  0  0  0  0  0  0  0  0
    1.9545    2.3605    0.4730 H   0  0  0  0  0  0  0  0  0  0  0  0
  1  2  2  0  0  0  0
  1 14  1  0  0  0  0
  1 15  1  0  0  0  0
  2  3  1  0  0  0  0
  2 16  1  0  0  0  0
  3  4  1  0  0  0  0
  3 13  2  0  0  0  0
  4  5  2  0  0  0  0
  4 17  1  0  0  0  0
  5  6  1  0  0  0  0
  5 18  1  0  0  0  0
  6  7  1  0  0  0  0
  6  9  2  0  0  0  0
  7  8  2  0  0  0  0
  7 19  1  0  0  0  0
  8 20  1  0  0  0  0
  8 21  1  0  0  0  0
  9 10  1  0  0  0  0
  9 13  1  0  0  0  0
 10 11  1  0  0  0  0
 10 22  1  0  0  0  0
 10 23  1  0  0  0  0
 11 12  3  0  0  0  0
 13 24  1  0  0  0  0
M  END
