
 OpenBabel02012214133D

 21 22  0  0  0  0  0  0  0  0999 V2000
    1.0773    0.0291    0.0376 C   0  0  0  0  0  0  0  0  0  0  0  0
    2.5764    0.0549    0.0459 C   0  0  0  0  0  0  0  0  0  0  0  0
    3.2840    1.2793    0.0492 C   0  0  0  0  0  0  0  0  0  0  0  0
    4.6937    1.2941    0.0572 C   0  0  0  0  0  0  0  0  0  0  0  0
    5.4642    2.5815    0.0610 C   0  0  0  0  0  0  0  0  0  0  0  0
    5.3467    0.0579    0.0615 C   0  0  0  0  0  0  0  0  0  0  0  0
    6.6798   -0.1445    0.0692 N   0  0  0  0  0  0  0  0  0  0  0  0
    6.8099   -1.4925    0.0704 C   0  0  0  0  0  0  0  0  0  0  0  0
    5.5562   -2.0818    0.0637 C   0  0  0  0  0  0  0  0  0  0  0  0
    4.6528   -1.0910    0.0581 N   0  0  0  0  0  0  0  0  0  0  0  0
    3.2982   -1.1519    0.0505 C   0  0  0  0  0  0  0  0  0  0  0  0
    0.6532    1.0557    0.0348 H   0  0  0  0  0  0  0  0  0  0  0  0
    0.7085   -0.5015    0.9405 H   0  0  0  0  0  0  0  0  0  0  0  0
    0.7184   -0.5023   -0.8689 H   0  0  0  0  0  0  0  0  0  0  0  0
    2.7383    2.2151    0.0458 H   0  0  0  0  0  0  0  0  0  0  0  0
    4.7841    3.4596    0.0566 H   0  0  0  0  0  0  0  0  0  0  0  0
    6.1106    2.6323   -0.8403 H   0  0  0  0  0  0  0  0  0  0  0  0
    6.1002    2.6332    0.9695 H   0  0  0  0  0  0  0  0  0  0  0  0
    7.7581   -2.0130    0.0761 H   0  0  0  0  0  0  0  0  0  0  0  0
    5.3292   -3.1402    0.0629 H   0  0  0  0  0  0  0  0  0  0  0  0
    2.7889   -2.1085    0.0481 H   0  0  0  0  0  0  0  0  0  0  0  0
  1  2  1  0  0  0  0
  1 12  1  0  0  0  0
  1 13  1  0  0  0  0
  1 14  1  0  0  0  0
  2  3  1  0  0  0  0
  2 11  2  0  0  0  0
  3  4  2  0  0  0  0
  3 15  1  0  0  0  0
  4  5  1  0  0  0  0
  4  6  1  0  0  0  0
  5 16  1  0  0  0  0
  5 17  1  0  0  0  0
  5 18  1  0  0  0  0
  6  7  2  0  0  0  0
  6 10  1  0  0  0  0
  7  8  1  0  0  0  0
  8  9  2  0  0  0  0
  8 19  1  0  0  0  0
  9 10  1  0  0  0  0
  9 20  1  0  0  0  0
 10 11  1  0  0  0  0
 11 21  1  0  0  0  0
M  END
