
 OpenBabel02012213363D

 37 39  0  0  0  0  0  0  0  0999 V2000
    2.5416    0.0256    0.0080 C   0  0  0  0  0  0  0  0  0  0  0  0
    1.0417    0.0030    0.0119 C   0  0  0  0  0  0  0  0  0  0  0  0
    0.3355   -1.0318   -0.6048 C   0  0  0  0  0  0  0  0  0  0  0  0
   -1.0654   -1.0224   -0.6293 C   0  0  0  0  0  0  0  0  0  0  0  0
   -1.8040    0.0052   -0.0144 C   0  0  0  0  0  0  0  0  0  0  0  0
   -3.2568    0.0122   -0.0347 N   0  0  0  0  0  0  0  0  0  0  0  0
   -3.9986   -1.2373   -0.0041 C   0  0  0  0  0  0  0  0  0  0  0  0
   -3.5481   -2.3433    0.7416 C   0  0  0  0  0  0  0  0  0  0  0  0
   -4.2660   -3.5444    0.7653 C   0  0  0  0  0  0  0  0  0  0  0  0
   -5.4675   -3.6549    0.0710 C   0  0  0  0  0  0  0  0  0  0  0  0
   -5.9430   -2.5727   -0.6626 C   0  0  0  0  0  0  0  0  0  0  0  0
   -5.2071   -1.3848   -0.7134 C   0  0  0  0  0  0  0  0  0  0  0  0
   -3.9808    1.2684   -0.1020 C   0  0  0  0  0  0  0  0  0  0  0  0
   -3.4982    2.3551   -0.8605 C   0  0  0  0  0  0  0  0  0  0  0  0
   -4.1970    3.5628   -0.9324 C   0  0  0  0  0  0  0  0  0  0  0  0
   -5.4116    3.7024   -0.2654 C   0  0  0  0  0  0  0  0  0  0  0  0
   -5.9189    2.6423    0.4815 C   0  0  0  0  0  0  0  0  0  0  0  0
   -5.2013    1.4472    0.5765 C   0  0  0  0  0  0  0  0  0  0  0  0
   -1.0751    1.0318    0.6127 C   0  0  0  0  0  0  0  0  0  0  0  0
    0.3252    1.0421    0.6099 C   0  0  0  0  0  0  0  0  0  0  0  0
    2.9563   -0.9116   -0.3784 H   0  0  0  0  0  0  0  0  0  0  0  0
    2.9222    0.1612    1.0253 H   0  0  0  0  0  0  0  0  0  0  0  0
    2.9041    0.8431   -0.6237 H   0  0  0  0  0  0  0  0  0  0  0  0
    0.8646   -1.8560   -1.0786 H   0  0  0  0  0  0  0  0  0  0  0  0
   -1.5745   -1.8313   -1.1480 H   0  0  0  0  0  0  0  0  0  0  0  0
   -2.6311   -2.2778    1.3221 H   0  0  0  0  0  0  0  0  0  0  0  0
   -3.8871   -4.3894    1.3342 H   0  0  0  0  0  0  0  0  0  0  0  0
   -6.0329   -4.5825    0.1025 H   0  0  0  0  0  0  0  0  0  0  0  0
   -6.8848   -2.6489   -1.1998 H   0  0  0  0  0  0  0  0  0  0  0  0
   -5.5913   -0.5676   -1.3199 H   0  0  0  0  0  0  0  0  0  0  0  0
   -2.5698    2.2618   -1.4188 H   0  0  0  0  0  0  0  0  0  0  0  0
   -3.7966    4.3877   -1.5139 H   0  0  0  0  0  0  0  0  0  0  0  0
   -5.9660    4.6336   -0.3348 H   0  0  0  0  0  0  0  0  0  0  0  0
   -6.8720    2.7444    0.9925 H   0  0  0  0  0  0  0  0  0  0  0  0
   -5.6099    0.6469    1.1889 H   0  0  0  0  0  0  0  0  0  0  0  0
   -1.5926    1.8437    1.1185 H   0  0  0  0  0  0  0  0  0  0  0  0
    0.8503    1.8688    1.0824 H   0  0  0  0  0  0  0  0  0  0  0  0
  1  2  1  0  0  0  0
  1 21  1  0  0  0  0
  1 22  1  0  0  0  0
  1 23  1  0  0  0  0
  2  3  1  0  0  0  0
  2 20  2  0  0  0  0
  3  4  2  0  0  0  0
  3 24  1  0  0  0  0
  4  5  1  0  0  0  0
  4 25  1  0  0  0  0
  5  6  1  0  0  0  0
  5 19  2  0  0  0  0
  6  7  1  0  0  0  0
  6 13  1  0  0  0  0
  7  8  1  0  0  0  0
  7 12  2  0  0  0  0
  8  9  2  0  0  0  0
  8 26  1  0  0  0  0
  9 10  1  0  0  0  0
  9 27  1  0  0  0  0
 10 11  2  0  0  0  0
 10 28  1  0  0  0  0
 11 12  1  0  0  0  0
 11 29  1  0  0  0  0
 12 30  1  0  0  0  0
 13 14  1  0  0  0  0
 13 18  2  0  0  0  0
 14 15  2  0  0  0  0
 14 31  1  0  0  0  0
 15 16  1  0  0  0  0
 15 32  1  0  0  0  0
 16 17  2  0  0  0  0
 16 33  1  0  0  0  0
 17 18  1  0  0  0  0
 17 34  1  0  0  0  0
 18 35  1  0  0  0  0
 19 20  1  0  0  0  0
 19 36  1  0  0  0  0
 20 37  1  0  0  0  0
M  END
