
  xtb     02012213363D
 xtb: 6.4.1 (23d549d)
 37 39  0     0  0            999 V2000
    2.4395    0.0026    0.0122 c   0  0  0  0  0  0  0  0  0  0  0  0
    0.9411   -0.0036   -0.0172 c   0  0  0  0  0  0  0  0  0  0  0  0
    0.2171   -0.9563    0.6896 c   0  0  0  0  0  0  0  0  0  0  0  0
   -1.1634   -0.9521    0.6874 c   0  0  0  0  0  0  0  0  0  0  0  0
   -1.8636    0.0106   -0.0380 c   0  0  0  0  0  0  0  0  0  0  0  0
   -3.2644    0.0162   -0.0502 n   0  0  0  0  0  0  0  0  0  0  0  0
   -3.9671   -1.1926   -0.0737 c   0  0  0  0  0  0  0  0  0  0  0  0
   -5.1624   -1.3301    0.6324 c   0  0  0  0  0  0  0  0  0  0  0  0
   -5.8556   -2.5243    0.6030 c   0  0  0  0  0  0  0  0  0  0  0  0
   -5.3687   -3.6015   -0.1193 c   0  0  0  0  0  0  0  0  0  0  0  0
   -4.1793   -3.4725   -0.8178 c   0  0  0  0  0  0  0  0  0  0  0  0
   -3.4830   -2.2798   -0.8016 c   0  0  0  0  0  0  0  0  0  0  0  0
   -3.9575    1.2307   -0.0447 c   0  0  0  0  0  0  0  0  0  0  0  0
   -5.1372    1.3761   -0.7750 c   0  0  0  0  0  0  0  0  0  0  0  0
   -5.8199    2.5766   -0.7640 c   0  0  0  0  0  0  0  0  0  0  0  0
   -5.3379    3.6522   -0.0361 c   0  0  0  0  0  0  0  0  0  0  0  0
   -4.1642    3.5151    0.6869 c   0  0  0  0  0  0  0  0  0  0  0  0
   -3.4786    2.3162    0.6890 c   0  0  0  0  0  0  0  0  0  0  0  0
   -1.1430    0.9663   -0.7526 c   0  0  0  0  0  0  0  0  0  0  0  0
    0.2373    0.9570   -0.7338 c   0  0  0  0  0  0  0  0  0  0  0  0
    2.8292   -1.0049    0.1388 h   0  0  0  0  0  0  0  0  0  0  0  0
    2.7951    0.6082    0.8470 h   0  0  0  0  0  0  0  0  0  0  0  0
    2.8435    0.4252   -0.9050 h   0  0  0  0  0  0  0  0  0  0  0  0
    0.7426   -1.7107    1.2579 h   0  0  0  0  0  0  0  0  0  0  0  0
   -1.7094   -1.6960    1.2492 h   0  0  0  0  0  0  0  0  0  0  0  0
   -5.5394   -0.4953    1.2051 h   0  0  0  0  0  0  0  0  0  0  0  0
   -6.7789   -2.6168    1.1562 h   0  0  0  0  0  0  0  0  0  0  0  0
   -5.9120   -4.5341   -0.1380 h   0  0  0  0  0  0  0  0  0  0  0  0
   -3.7945   -4.3051   -1.3884 h   0  0  0  0  0  0  0  0  0  0  0  0
   -2.5608   -2.1792   -1.3550 h   0  0  0  0  0  0  0  0  0  0  0  0
   -5.5102    0.5426   -1.3522 h   0  0  0  0  0  0  0  0  0  0  0  0
   -6.7312    2.6751   -1.3358 h   0  0  0  0  0  0  0  0  0  0  0  0
   -5.8729    4.5898   -0.0320 h   0  0  0  0  0  0  0  0  0  0  0  0
   -3.7832    4.3466    1.2618 h   0  0  0  0  0  0  0  0  0  0  0  0
   -2.5685    2.2095    1.2612 h   0  0  0  0  0  0  0  0  0  0  0  0
   -1.6731    1.7136   -1.3250 h   0  0  0  0  0  0  0  0  0  0  0  0
    0.7788    1.7048   -1.2957 h   0  0  0  0  0  0  0  0  0  0  0  0
  1  2  1  0  0  0  0
  2  3  4  0  0  0  0
  3  4  4  0  0  0  0
  4  5  4  0  0  0  0
  5  6  1  0  0  0  0
  6  7  1  0  0  0  0
  7  8  4  0  0  0  0
  8  9  4  0  0  0  0
  9 10  4  0  0  0  0
 10 11  4  0  0  0  0
  7 12  4  0  0  0  0
 11 12  4  0  0  0  0
  6 13  1  0  0  0  0
 13 14  4  0  0  0  0
 14 15  4  0  0  0  0
 15 16  4  0  0  0  0
 16 17  4  0  0  0  0
 13 18  4  0  0  0  0
 17 18  4  0  0  0  0
  5 19  4  0  0  0  0
  2 20  4  0  0  0  0
 19 20  4  0  0  0  0
  1 21  1  0  0  0  0
  1 22  1  0  0  0  0
  1 23  1  0  0  0  0
  3 24  1  0  0  0  0
  4 25  1  0  0  0  0
  8 26  1  0  0  0  0
  9 27  1  0  0  0  0
 10 28  1  0  0  0  0
 11 29  1  0  0  0  0
 12 30  1  0  0  0  0
 14 31  1  0  0  0  0
 15 32  1  0  0  0  0
 16 33  1  0  0  0  0
 17 34  1  0  0  0  0
 18 35  1  0  0  0  0
 19 36  1  0  0  0  0
 20 37  1  0  0  0  0
M  END
