
  xtb     02032211353D
 xtb: 6.4.1 (23d549d)
 22 22  0     0  0            999 V2000
   -3.8950   -0.3304    0.0108 C   0  0  0  0  0  0  0  0  0  0  0  0
   -2.9579    0.6093    0.0590 C   0  0  0  0  0  0  0  0  0  0  0  0
   -1.5154    0.4116    0.0163 C   0  0  0  0  0  0  0  0  0  0  0  0
   -0.6806    1.5303   -0.0467 C   0  0  0  0  0  0  0  0  0  0  0  0
    0.6878    1.3816   -0.1019 C   0  0  0  0  0  0  0  0  0  0  0  0
    1.2894    0.1253   -0.0898 C   0  0  0  0  0  0  0  0  0  0  0  0
    2.7380   -0.0161   -0.1967 C   0  0  0  0  0  0  0  0  0  0  0  0
    3.6293    0.8622    0.2466 C   0  0  0  0  0  0  0  0  0  0  0  0
    0.4576   -1.0092   -0.0023 C   0  0  0  0  0  0  0  0  0  0  0  0
    0.9894   -2.2866   -0.0049 N   0  0  0  0  0  0  0  0  0  0  0  0
   -0.9226   -0.8464    0.0435 C   0  0  0  0  0  0  0  0  0  0  0  0
   -4.9416   -0.0800    0.0457 H   0  0  0  0  0  0  0  0  0  0  0  0
   -3.6664   -1.3793   -0.0703 H   0  0  0  0  0  0  0  0  0  0  0  0
   -3.2637    1.6466    0.1281 H   0  0  0  0  0  0  0  0  0  0  0  0
   -1.1151    2.5193   -0.0659 H   0  0  0  0  0  0  0  0  0  0  0  0
    1.3152    2.2567   -0.1822 H   0  0  0  0  0  0  0  0  0  0  0  0
    3.0857   -0.9142   -0.6934 H   0  0  0  0  0  0  0  0  0  0  0  0
    3.3400    1.7603    0.7657 H   0  0  0  0  0  0  0  0  0  0  0  0
    4.6871    0.7084    0.1162 H   0  0  0  0  0  0  0  0  0  0  0  0
    1.9243   -2.3860    0.3540 H   0  0  0  0  0  0  0  0  0  0  0  0
    0.3590   -3.0153    0.2900 H   0  0  0  0  0  0  0  0  0  0  0  0
   -1.5382   -1.7317    0.1101 H   0  0  0  0  0  0  0  0  0  0  0  0
  1  2  2  0  0  0  0
  2  3  1  0  0  0  0
  3  4  4  0  0  0  0
  4  5  4  0  0  0  0
  5  6  4  0  0  0  0
  6  7  1  0  0  0  0
  7  8  2  0  0  0  0
  6  9  4  0  0  0  0
  9 10  1  0  0  0  0
  3 11  4  0  0  0  0
  9 11  4  0  0  0  0
  1 12  1  0  0  0  0
  1 13  1  0  0  0  0
  2 14  1  0  0  0  0
  4 15  1  0  0  0  0
  5 16  1  0  0  0  0
  7 17  1  0  0  0  0
  8 18  1  0  0  0  0
  8 19  1  0  0  0  0
 10 20  1  0  0  0  0
 10 21  1  0  0  0  0
 11 22  1  0  0  0  0
M  END
