
  xtb     02032211353D
 xtb: 6.4.1 (23d549d)
 34 34  0     0  0            999 V2000
    2.0805   -3.2958   -0.4437 C   0  0  0  0  0  0  0  0  0  0  0  0
    2.2639   -2.1185    0.1396 C   0  0  0  0  0  0  0  0  0  0  0  0
    1.3263   -0.9965    0.0855 C   0  0  0  0  0  0  0  0  0  0  0  0
   -0.0445   -1.2383    0.0564 C   0  0  0  0  0  0  0  0  0  0  0  0
   -0.9765   -0.2129    0.0436 C   0  0  0  0  0  0  0  0  0  0  0  0
   -2.4784   -0.4535    0.0136 C   0  0  0  0  0  0  0  0  0  0  0  0
   -2.8347   -1.9407   -0.0590 C   0  0  0  0  0  0  0  0  0  0  0  0
   -3.1059    0.1282    1.2880 C   0  0  0  0  0  0  0  0  0  0  0  0
   -3.0731    0.2395   -1.2205 C   0  0  0  0  0  0  0  0  0  0  0  0
   -0.4916    1.0887    0.0833 C   0  0  0  0  0  0  0  0  0  0  0  0
    0.8660    1.3796    0.1131 C   0  0  0  0  0  0  0  0  0  0  0  0
    1.3168    2.7694    0.1964 C   0  0  0  0  0  0  0  0  0  0  0  0
    0.7089    3.8026   -0.3714 C   0  0  0  0  0  0  0  0  0  0  0  0
    1.7976    0.3265    0.0912 C   0  0  0  0  0  0  0  0  0  0  0  0
    3.1564    0.5913    0.0892 N   0  0  0  0  0  0  0  0  0  0  0  0
    2.7973   -4.0936   -0.3473 H   0  0  0  0  0  0  0  0  0  0  0  0
    1.2144   -3.5052   -1.0488 H   0  0  0  0  0  0  0  0  0  0  0  0
    3.1633   -1.9526    0.7214 H   0  0  0  0  0  0  0  0  0  0  0  0
   -0.3619   -2.2673    0.0699 H   0  0  0  0  0  0  0  0  0  0  0  0
   -2.4724   -2.4734    0.8171 H   0  0  0  0  0  0  0  0  0  0  0  0
   -2.4176   -2.3988   -0.9530 H   0  0  0  0  0  0  0  0  0  0  0  0
   -3.9166   -2.0532   -0.0964 H   0  0  0  0  0  0  0  0  0  0  0  0
   -2.6761   -0.3462    2.1678 H   0  0  0  0  0  0  0  0  0  0  0  0
   -4.1803   -0.0448    1.2915 H   0  0  0  0  0  0  0  0  0  0  0  0
   -2.9324    1.1984    1.3607 H   0  0  0  0  0  0  0  0  0  0  0  0
   -2.6152   -0.1507   -2.1272 H   0  0  0  0  0  0  0  0  0  0  0  0
   -2.9071    1.3126   -1.1900 H   0  0  0  0  0  0  0  0  0  0  0  0
   -4.1457    0.0627   -1.2713 H   0  0  0  0  0  0  0  0  0  0  0  0
   -1.1787    1.9198    0.1185 H   0  0  0  0  0  0  0  0  0  0  0  0
    2.2094    2.9404    0.7870 H   0  0  0  0  0  0  0  0  0  0  0  0
   -0.1690    3.6827   -0.9840 H   0  0  0  0  0  0  0  0  0  0  0  0
    1.0730    4.8093   -0.2540 H   0  0  0  0  0  0  0  0  0  0  0  0
    3.4224    1.5056   -0.2372 H   0  0  0  0  0  0  0  0  0  0  0  0
    3.7450   -0.1483   -0.2567 H   0  0  0  0  0  0  0  0  0  0  0  0
  1  2  2  0  0  0  0
  2  3  1  0  0  0  0
  3  4  4  0  0  0  0
  4  5  4  0  0  0  0
  5  6  1  0  0  0  0
  6  7  1  0  0  0  0
  6  8  1  0  0  0  0
  6  9  1  0  0  0  0
  5 10  4  0  0  0  0
 10 11  4  0  0  0  0
 11 12  1  0  0  0  0
 12 13  2  0  0  0  0
  3 14  4  0  0  0  0
 11 14  4  0  0  0  0
 14 15  1  0  0  0  0
  1 16  1  0  0  0  0
  1 17  1  0  0  0  0
  2 18  1  0  0  0  0
  4 19  1  0  0  0  0
  7 20  1  0  0  0  0
  7 21  1  0  0  0  0
  7 22  1  0  0  0  0
  8 23  1  0  0  0  0
  8 24  1  0  0  0  0
  8 25  1  0  0  0  0
  9 26  1  0  0  0  0
  9 27  1  0  0  0  0
  9 28  1  0  0  0  0
 10 29  1  0  0  0  0
 12 30  1  0  0  0  0
 13 31  1  0  0  0  0
 13 32  1  0  0  0  0
 15 33  1  0  0  0  0
 15 34  1  0  0  0  0
M  END
