
 OpenBabel02012214113D

 21 21  0  0  0  0  0  0  0  0999 V2000
    1.4175    0.2151   -0.0539 C   0  0  0  0  0  0  0  0  0  0  0  0
    2.8703   -0.0876   -0.0574 C   0  0  0  0  0  0  0  0  0  0  0  0
    3.7679    0.9028   -0.0640 N   0  0  0  0  0  0  0  0  0  0  0  0
    4.9557    0.2742   -0.0662 N   0  0  0  0  0  0  0  0  0  0  0  0
    6.1652    1.0638   -0.0685 C   0  0  0  0  0  0  0  0  0  0  0  0
    4.8505   -1.0938   -0.0642 C   0  0  0  0  0  0  0  0  0  0  0  0
    6.0114   -2.0200   -0.0712 C   0  0  0  0  0  0  0  0  0  0  0  0
    3.4924   -1.3643   -0.0546 C   0  0  0  0  0  0  0  0  0  0  0  0
    2.8168   -2.6846   -0.0449 C   0  0  0  0  0  0  0  0  0  0  0  0
    1.2277    1.2932   -0.0554 H   0  0  0  0  0  0  0  0  0  0  0  0
    0.9427   -0.2116    0.8354 H   0  0  0  0  0  0  0  0  0  0  0  0
    0.9386   -0.2144   -0.9400 H   0  0  0  0  0  0  0  0  0  0  0  0
    5.9107    2.1266   -0.0653 H   0  0  0  0  0  0  0  0  0  0  0  0
    6.7329    0.8227   -0.9706 H   0  0  0  0  0  0  0  0  0  0  0  0
    6.7384    0.8191    0.8292 H   0  0  0  0  0  0  0  0  0  0  0  0
    6.9722   -1.4987   -0.0779 H   0  0  0  0  0  0  0  0  0  0  0  0
    5.9742   -2.6615   -0.9574 H   0  0  0  0  0  0  0  0  0  0  0  0
    5.9860   -2.6612    0.8161 H   0  0  0  0  0  0  0  0  0  0  0  0
    3.5366   -3.5085   -0.0448 H   0  0  0  0  0  0  0  0  0  0  0  0
    2.1799   -2.7935   -0.9287 H   0  0  0  0  0  0  0  0  0  0  0  0
    2.1900   -2.7847    0.8471 H   0  0  0  0  0  0  0  0  0  0  0  0
  1  2  1  0  0  0  0
  1 10  1  0  0  0  0
  1 11  1  0  0  0  0
  1 12  1  0  0  0  0
  2  3  2  0  0  0  0
  2  8  1  0  0  0  0
  3  4  1  0  0  0  0
  4  5  1  0  0  0  0
  4  6  1  0  0  0  0
  5 13  1  0  0  0  0
  5 14  1  0  0  0  0
  5 15  1  0  0  0  0
  6  7  1  0  0  0  0
  6  8  2  0  0  0  0
  7 16  1  0  0  0  0
  7 17  1  0  0  0  0
  7 18  1  0  0  0  0
  8  9  1  0  0  0  0
  9 19  1  0  0  0  0
  9 20  1  0  0  0  0
  9 21  1  0  0  0  0
M  END
