
  xtb     02012214113D
 xtb: 6.4.1 (23d549d)
 21 21  0     0  0            999 V2000
    1.4129    0.2085   -0.0509 c   0  0  0  0  0  0  0  0  0  0  0  0
    2.8697   -0.0874   -0.0565 c   0  0  0  0  0  0  0  0  0  0  0  0
    3.7816    0.8700   -0.0625 n   0  0  0  0  0  0  0  0  0  0  0  0
    4.9701    0.2630   -0.0663 n   0  0  0  0  0  0  0  0  0  0  0  0
    6.1670    1.0526   -0.0730 c   0  0  0  0  0  0  0  0  0  0  0  0
    4.8443   -1.0868   -0.0627 c   0  0  0  0  0  0  0  0  0  0  0  0
    6.0025   -2.0211   -0.0658 c   0  0  0  0  0  0  0  0  0  0  0  0
    3.4874   -1.3548   -0.0563 c   0  0  0  0  0  0  0  0  0  0  0  0
    2.8081   -2.6806   -0.0502 c   0  0  0  0  0  0  0  0  0  0  0  0
    1.2603    1.2837   -0.0526 h   0  0  0  0  0  0  0  0  0  0  0  0
    0.9423   -0.2195    0.8338 h   0  0  0  0  0  0  0  0  0  0  0  0
    0.9348   -0.2233   -0.9298 h   0  0  0  0  0  0  0  0  0  0  0  0
    5.8599    2.0962   -0.0738 h   0  0  0  0  0  0  0  0  0  0  0  0
    6.7640    0.8533   -0.9660 h   0  0  0  0  0  0  0  0  0  0  0  0
    6.7716    0.8568    0.8156 h   0  0  0  0  0  0  0  0  0  0  0  0
    6.9435   -1.4787   -0.0712 h   0  0  0  0  0  0  0  0  0  0  0  0
    5.9675   -2.6638   -0.9454 h   0  0  0  0  0  0  0  0  0  0  0  0
    5.9754   -2.6598    0.8170 h   0  0  0  0  0  0  0  0  0  0  0  0
    3.5381   -3.4861   -0.0517 h   0  0  0  0  0  0  0  0  0  0  0  0
    2.1697   -2.7860   -0.9278 h   0  0  0  0  0  0  0  0  0  0  0  0
    2.1777   -2.7821    0.8335 h   0  0  0  0  0  0  0  0  0  0  0  0
  1  2  1  0  0  0  0
  2  3  4  0  0  0  0
  3  4  1  0  0  0  0
  4  5  1  0  0  0  0
  4  6  4  0  0  0  0
  6  7  1  0  0  0  0
  2  8  4  0  0  0  0
  6  8  4  0  0  0  0
  8  9  1  0  0  0  0
  1 10  1  0  0  0  0
  1 11  1  0  0  0  0
  1 12  1  0  0  0  0
  5 13  1  0  0  0  0
  5 14  1  0  0  0  0
  5 15  1  0  0  0  0
  7 16  1  0  0  0  0
  7 17  1  0  0  0  0
  7 18  1  0  0  0  0
  9 19  1  0  0  0  0
  9 20  1  0  0  0  0
  9 21  1  0  0  0  0
M  END
