
 OpenBabel02012213483D

 24 25  0  0  0  0  0  0  0  0999 V2000
    0.9667    0.0495    0.0281 C   0  0  0  0  0  0  0  0  0  0  0  0
    2.4667    0.0722   -0.0024 C   0  0  0  0  0  0  0  0  0  0  0  0
    3.1656    1.2894    0.0056 C   0  0  0  0  0  0  0  0  0  0  0  0
    4.5627    1.3030   -0.0265 C   0  0  0  0  0  0  0  0  0  0  0  0
    5.2800    0.0989   -0.0682 C   0  0  0  0  0  0  0  0  0  0  0  0
    6.6831    0.1034   -0.1054 C   0  0  0  0  0  0  0  0  0  0  0  0
    7.3948   -1.1062   -0.1524 C   0  0  0  0  0  0  0  0  0  0  0  0
    8.8944   -1.1133   -0.1985 C   0  0  0  0  0  0  0  0  0  0  0  0
    6.6956   -2.3218   -0.1584 C   0  0  0  0  0  0  0  0  0  0  0  0
    5.2989   -2.3362   -0.1192 C   0  0  0  0  0  0  0  0  0  0  0  0
    4.5816   -1.1318   -0.0755 C   0  0  0  0  0  0  0  0  0  0  0  0
    3.1786   -1.1359   -0.0413 C   0  0  0  0  0  0  0  0  0  0  0  0
    0.5433    1.0762    0.0520 H   0  0  0  0  0  0  0  0  0  0  0  0
    0.6193   -0.4952    0.9311 H   0  0  0  0  0  0  0  0  0  0  0  0
    0.5837   -0.4665   -0.8775 H   0  0  0  0  0  0  0  0  0  0  0  0
    2.6301    2.2302    0.0353 H   0  0  0  0  0  0  0  0  0  0  0  0
    5.0813    2.2546   -0.0203 H   0  0  0  0  0  0  0  0  0  0  0  0
    7.2206    1.0450   -0.1008 H   0  0  0  0  0  0  0  0  0  0  0  0
    9.3086   -0.0827   -0.1845 H   0  0  0  0  0  0  0  0  0  0  0  0
    9.2354   -1.6153   -1.1285 H   0  0  0  0  0  0  0  0  0  0  0  0
    9.2933   -1.6643    0.6790 H   0  0  0  0  0  0  0  0  0  0  0  0
    7.2349   -3.2606   -0.1942 H   0  0  0  0  0  0  0  0  0  0  0  0
    4.7803   -3.2877   -0.1253 H   0  0  0  0  0  0  0  0  0  0  0  0
    2.6372   -2.0756   -0.0471 H   0  0  0  0  0  0  0  0  0  0  0  0
  1  2  1  0  0  0  0
  1 13  1  0  0  0  0
  1 14  1  0  0  0  0
  1 15  1  0  0  0  0
  2  3  1  0  0  0  0
  2 12  2  0  0  0  0
  3  4  2  0  0  0  0
  3 16  1  0  0  0  0
  4  5  1  0  0  0  0
  4 17  1  0  0  0  0
  5  6  1  0  0  0  0
  5 11  2  0  0  0  0
  6  7  2  0  0  0  0
  6 18  1  0  0  0  0
  7  8  1  0  0  0  0
  7  9  1  0  0  0  0
  8 19  1  0  0  0  0
  8 20  1  0  0  0  0
  8 21  1  0  0  0  0
  9 10  2  0  0  0  0
  9 22  1  0  0  0  0
 10 11  1  0  0  0  0
 10 23  1  0  0  0  0
 11 12  1  0  0  0  0
 12 24  1  0  0  0  0
M  END
