
  xtb     02012213483D
 xtb: 6.4.1 (23d549d)
 24 25  0     0  0            999 V2000
    0.9679    0.0530    0.0306 c   0  0  0  0  0  0  0  0  0  0  0  0
    2.4673    0.0596   -0.0038 c   0  0  0  0  0  0  0  0  0  0  0  0
    3.1756    1.2755    0.0042 c   0  0  0  0  0  0  0  0  0  0  0  0
    4.5416    1.2973   -0.0285 c   0  0  0  0  0  0  0  0  0  0  0  0
    5.2830    0.0997   -0.0719 c   0  0  0  0  0  0  0  0  0  0  0  0
    6.6925    0.0856   -0.1094 c   0  0  0  0  0  0  0  0  0  0  0  0
    7.3946   -1.0892   -0.1530 c   0  0  0  0  0  0  0  0  0  0  0  0
    8.8921   -1.1146   -0.1961 c   0  0  0  0  0  0  0  0  0  0  0  0
    6.6851   -2.3086   -0.1583 c   0  0  0  0  0  0  0  0  0  0  0  0
    5.3215   -2.3315   -0.1223 c   0  0  0  0  0  0  0  0  0  0  0  0
    4.5790   -1.1319   -0.0790 c   0  0  0  0  0  0  0  0  0  0  0  0
    3.1722   -1.1172   -0.0441 c   0  0  0  0  0  0  0  0  0  0  0  0
    0.5733    1.0657    0.0560 h   0  0  0  0  0  0  0  0  0  0  0  0
    0.6100   -0.4808    0.9104 h   0  0  0  0  0  0  0  0  0  0  0  0
    0.5697   -0.4524   -0.8486 h   0  0  0  0  0  0  0  0  0  0  0  0
    2.6214    2.2032    0.0366 h   0  0  0  0  0  0  0  0  0  0  0  0
    5.0739    2.2384   -0.0221 h   0  0  0  0  0  0  0  0  0  0  0  0
    7.2161    1.0321   -0.1039 h   0  0  0  0  0  0  0  0  0  0  0  0
    9.3005   -0.1072   -0.1812 h   0  0  0  0  0  0  0  0  0  0  0  0
    9.2359   -1.6168   -1.1001 h   0  0  0  0  0  0  0  0  0  0  0  0
    9.2864   -1.6635    0.6587 h   0  0  0  0  0  0  0  0  0  0  0  0
    7.2441   -3.2333   -0.1921 h   0  0  0  0  0  0  0  0  0  0  0  0
    4.7883   -3.2720   -0.1269 h   0  0  0  0  0  0  0  0  0  0  0  0
    2.6449   -2.0618   -0.0503 h   0  0  0  0  0  0  0  0  0  0  0  0
  1  2  1  0  0  0  0
  2  3  4  0  0  0  0
  3  4  2  0  0  0  0
  4  5  4  0  0  0  0
  5  6  4  0  0  0  0
  6  7  2  0  0  0  0
  7  8  1  0  0  0  0
  7  9  4  0  0  0  0
  9 10  2  0  0  0  0
  5 11  4  0  0  0  0
 10 11  4  0  0  0  0
  2 12  2  0  0  0  0
 11 12  4  0  0  0  0
  1 13  1  0  0  0  0
  1 14  1  0  0  0  0
  1 15  1  0  0  0  0
  3 16  1  0  0  0  0
  4 17  1  0  0  0  0
  6 18  1  0  0  0  0
  8 19  1  0  0  0  0
  8 20  1  0  0  0  0
  8 21  1  0  0  0  0
  9 22  1  0  0  0  0
 10 23  1  0  0  0  0
 12 24  1  0  0  0  0
M  END
