20

C          1.28782        1.02584       -0.27334
C          2.32410        0.22470       -0.00160
C          3.10980       -0.42100       -1.05850
C          2.74730       -0.17840       -2.39530
C          3.47330       -0.74920       -3.44210
C          4.56370       -1.56000       -3.15380
F          5.26170       -2.10090       -4.16160
C          4.92680       -1.81730       -1.83590
F          5.97860       -2.61560       -1.59060
C          4.20450       -1.26200       -0.77190
C          4.60260       -1.58390        0.60200
C          4.40938       -0.75080        1.62816
F          3.81556        0.44718        1.44732
F          4.80789       -1.12110        2.86368
H          0.72414        1.48818        0.53124
H          0.97127        1.23739       -1.29076
H          2.62291        0.01862        1.02258
H          1.89620        0.46010       -2.62520
H          3.19710       -0.56500       -4.47540
H          5.07915       -2.54409        0.76223
20

C          1.24983       -0.35714        0.54333
C          2.32410        0.22470       -0.00160
C          3.10980       -0.42100       -1.05850
C          2.74730       -0.17840       -2.39530
C          3.47330       -0.74920       -3.44210
C          4.56370       -1.56000       -3.15380
F          5.26170       -2.10090       -4.16160
C          4.92680       -1.81730       -1.83590
F          5.97860       -2.61560       -1.59060
C          4.20450       -1.26200       -0.77190
C          4.60260       -1.58390        0.60200
C          4.12380       -2.63770        1.26882
F          3.24111       -3.48054        0.69352
F          4.53884       -2.86337        2.53343
H          0.68941        0.14554        1.32570
H          0.90500       -1.33991        0.23455
H          2.65902        1.20572        0.32418
H          1.89620        0.46010       -2.62520
H          3.19710       -0.56500       -4.47540
H          5.31278       -0.91624        1.07593
20

C          2.15565       -0.33360        1.20234
C          2.32410        0.22470       -0.00160
C          3.10980       -0.42100       -1.05850
C          2.74730       -0.17840       -2.39530
C          3.47330       -0.74920       -3.44210
C          4.56370       -1.56000       -3.15380
F          5.26170       -2.10090       -4.16160
C          4.92680       -1.81730       -1.83590
F          5.97860       -2.61560       -1.59060
C          4.20450       -1.26200       -0.77190
C          4.60260       -1.58390        0.60200
C          4.40938       -0.75080        1.62816
F          3.81556        0.44718        1.44732
F          4.80789       -1.12110        2.86368
H          1.56967        0.17001        1.96513
H          2.59490       -1.29265        1.46194
H          1.88291        1.18815       -0.24204
H          1.89620        0.46010       -2.62520
H          3.19710       -0.56500       -4.47540
H          5.07915       -2.54409        0.76223
20

C          2.85998        0.56820        1.17500
C          2.32410        0.22470       -0.00160
C          3.10980       -0.42100       -1.05850
C          2.74730       -0.17840       -2.39530
C          3.47330       -0.74920       -3.44210
C          4.56370       -1.56000       -3.15380
F          5.26170       -2.10090       -4.16160
C          4.92680       -1.81730       -1.83590
F          5.97860       -2.61560       -1.59060
C          4.20450       -1.26200       -0.77190
C          4.60260       -1.58390        0.60200
C          3.73551       -1.63175        1.61702
F          2.42234       -1.39245        1.42000
F          4.18313       -1.93295        2.85449
H          2.25274        1.04673        1.93731
H          3.90597        0.39050        1.40830
H          1.27716        0.41606       -0.22066
H          1.89620        0.46010       -2.62520
H          3.19710       -0.56500       -4.47540
H          5.65445       -1.78034        0.77447
20

C          2.64363        1.42741        0.48924
C          2.32410        0.22470       -0.00160
C          3.10980       -0.42100       -1.05850
C          2.74730       -0.17840       -2.39530
C          3.47330       -0.74920       -3.44210
C          4.56370       -1.56000       -3.15380
F          5.26170       -2.10090       -4.16160
C          4.92680       -1.81730       -1.83590
F          5.97860       -2.61560       -1.59060
C          4.20450       -1.26200       -0.77190
C          4.60260       -1.58390        0.60200
C          5.48607       -0.85680        1.29135
F          6.05758        0.23840        0.74876
F          5.80183       -1.22214        2.55200
H          2.04112        1.88046        1.27064
H          3.49947        1.99083        0.12840
H          1.46030       -0.32216        0.36649
H          1.89620        0.46010       -2.62520
H          3.19710       -0.56500       -4.47540
H          4.14975       -2.46020        1.05118
20

C          2.15565       -0.33360        1.20234
C          2.32410        0.22470       -0.00160
C          3.10980       -0.42100       -1.05850
C          2.74730       -0.17840       -2.39530
C          3.47330       -0.74920       -3.44210
C          4.56370       -1.56000       -3.15380
F          5.26170       -2.10090       -4.16160
C          4.92680       -1.81730       -1.83590
F          5.97860       -2.61560       -1.59060
C          4.20450       -1.26200       -0.77190
C          4.60260       -1.58390        0.60200
C          5.86616       -1.84151        0.95050
F          6.85906       -1.80560        0.03762
F          6.15003       -2.13291        2.23772
H          1.56967        0.17001        1.96513
H          2.59490       -1.29265        1.46194
H          1.88291        1.18815       -0.24204
H          1.89620        0.46010       -2.62520
H          3.19710       -0.56500       -4.47540
H          3.81529       -1.61434        1.34628
20

C          2.85998        0.56820        1.17500
C          2.32410        0.22470       -0.00160
C          3.10980       -0.42100       -1.05850
C          2.74730       -0.17840       -2.39530
C          3.47330       -0.74920       -3.44210
C          4.56370       -1.56000       -3.15380
F          5.26170       -2.10090       -4.16160
C          4.92680       -1.81730       -1.83590
F          5.97860       -2.61560       -1.59060
C          4.20450       -1.26200       -0.77190
C          4.60260       -1.58390        0.60200
C          5.64500       -2.36754        0.89134
F          6.40432       -2.90211       -0.08752
F          5.94432       -2.61821        2.18362
H          2.25274        1.04673        1.93731
H          3.90597        0.39050        1.40830
H          1.27716        0.41606       -0.22066
H          1.89620        0.46010       -2.62520
H          3.19710       -0.56500       -4.47540
H          4.00251       -1.15955        1.39858
20

C          1.24983       -0.35714        0.54333
C          2.32410        0.22470       -0.00160
C          3.10980       -0.42100       -1.05850
C          2.74730       -0.17840       -2.39530
C          3.47330       -0.74920       -3.44210
C          4.56370       -1.56000       -3.15380
F          5.26170       -2.10090       -4.16160
C          4.92680       -1.81730       -1.83590
F          5.97860       -2.61560       -1.59060
C          4.20450       -1.26200       -0.77190
C          4.60260       -1.58390        0.60200
C          5.48607       -0.85680        1.29135
F          6.05758        0.23840        0.74876
F          5.80183       -1.22214        2.55200
H          0.68941        0.14554        1.32570
H          0.90500       -1.33991        0.23455
H          2.65902        1.20572        0.32418
H          1.89620        0.46010       -2.62520
H          3.19710       -0.56500       -4.47540
H          4.14975       -2.46020        1.05118
20

C          2.64363        1.42741        0.48924
C          2.32410        0.22470       -0.00160
C          3.10980       -0.42100       -1.05850
C          2.74730       -0.17840       -2.39530
C          3.47330       -0.74920       -3.44210
C          4.56370       -1.56000       -3.15380
F          5.26170       -2.10090       -4.16160
C          4.92680       -1.81730       -1.83590
F          5.97860       -2.61560       -1.59060
C          4.20450       -1.26200       -0.77190
C          4.60260       -1.58390        0.60200
C          4.12380       -2.63770        1.26882
F          3.24111       -3.48054        0.69352
F          4.53884       -2.86337        2.53343
H          2.04112        1.88046        1.27064
H          3.49947        1.99083        0.12840
H          1.46030       -0.32216        0.36649
H          1.89620        0.46010       -2.62520
H          3.19710       -0.56500       -4.47540
H          5.31278       -0.91624        1.07593
20

C          1.24983       -0.35714        0.54333
C          2.32410        0.22470       -0.00160
C          3.10980       -0.42100       -1.05850
C          2.74730       -0.17840       -2.39530
C          3.47330       -0.74920       -3.44210
C          4.56370       -1.56000       -3.15380
F          5.26170       -2.10090       -4.16160
C          4.92680       -1.81730       -1.83590
F          5.97860       -2.61560       -1.59060
C          4.20450       -1.26200       -0.77190
C          4.60260       -1.58390        0.60200
C          4.40938       -0.75080        1.62816
F          3.81556        0.44718        1.44732
F          4.80789       -1.12110        2.86368
H          0.68941        0.14554        1.32570
H          0.90500       -1.33991        0.23455
H          2.65902        1.20572        0.32418
H          1.89620        0.46010       -2.62520
H          3.19710       -0.56500       -4.47540
H          5.07915       -2.54409        0.76223
