
  xtb     02032211353D
 xtb: 6.4.1 (23d549d)
 22 22  0     0  0            999 V2000
   -2.5038   -1.7543   -0.7650 C   0  0  0  0  0  0  0  0  0  0  0  0
   -2.5008   -0.6443   -0.0385 C   0  0  0  0  0  0  0  0  0  0  0  0
   -1.3752    0.2824    0.0725 C   0  0  0  0  0  0  0  0  0  0  0  0
   -1.6337    1.6537    0.1543 C   0  0  0  0  0  0  0  0  0  0  0  0
   -0.6944    2.5759    0.2087 N   0  0  0  0  0  0  0  0  0  0  0  0
    0.5661    2.1949    0.1660 C   0  0  0  0  0  0  0  0  0  0  0  0
    0.9775    0.8611    0.0749 C   0  0  0  0  0  0  0  0  0  0  0  0
    2.3912    0.5003    0.0581 C   0  0  0  0  0  0  0  0  0  0  0  0
    3.3536    1.2768   -0.4222 C   0  0  0  0  0  0  0  0  0  0  0  0
   -0.0305   -0.1147    0.0553 C   0  0  0  0  0  0  0  0  0  0  0  0
    0.3506   -1.5643    0.0426 C   0  0  0  0  0  0  0  0  0  0  0  0
    1.0535   -2.0695   -0.7848 O   0  0  0  0  0  0  0  0  0  0  0  0
   -0.1211   -2.2807    1.0838 O   0  0  0  0  0  0  0  0  0  0  0  0
   -3.3802   -2.3753   -0.8349 H   0  0  0  0  0  0  0  0  0  0  0  0
   -1.6458   -2.0770   -1.3307 H   0  0  0  0  0  0  0  0  0  0  0  0
   -3.4028   -0.3261    0.4700 H   0  0  0  0  0  0  0  0  0  0  0  0
   -2.6528    2.0171    0.1719 H   0  0  0  0  0  0  0  0  0  0  0  0
    1.2952    2.9898    0.2347 H   0  0  0  0  0  0  0  0  0  0  0  0
    2.6363   -0.4807    0.4411 H   0  0  0  0  0  0  0  0  0  0  0  0
    3.1538    2.2407   -0.8593 H   0  0  0  0  0  0  0  0  0  0  0  0
    4.3816    0.9594   -0.4161 H   0  0  0  0  0  0  0  0  0  0  0  0
   -0.7094   -1.7673    1.6529 H   0  0  0  0  0  0  0  0  0  0  0  0
  1  2  2  0  0  0  0
  2  3  1  0  0  0  0
  3  4  4  0  0  0  0
  4  5  4  0  0  0  0
  5  6  4  0  0  0  0
  6  7  4  0  0  0  0
  7  8  1  0  0  0  0
  8  9  2  0  0  0  0
  3 10  4  0  0  0  0
  7 10  4  0  0  0  0
 10 11  1  0  0  0  0
 11 12  2  0  0  0  0
 11 13  1  0  0  0  0
  1 14  1  0  0  0  0
  1 15  1  0  0  0  0
  2 16  1  0  0  0  0
  4 17  1  0  0  0  0
  6 18  1  0  0  0  0
  8 19  1  0  0  0  0
  9 20  1  0  0  0  0
  9 21  1  0  0  0  0
 13 22  1  0  0  0  0
M  END
