
  xtb     02032211093D
 xtb: 6.4.1 (23d549d)
 24 24  0     0  0            999 V2000
    1.3821    1.0704    0.9942 c   0  0  0  0  0  0  0  0  0  0  0  0
    1.6367   -0.1478    0.5368 c   0  0  0  0  0  0  0  0  0  0  0  0
    2.5948   -1.0807    1.1340 c   0  0  0  0  0  0  0  0  0  0  0  0
    3.7600   -0.6044    1.7223 c   0  0  0  0  0  0  0  0  0  0  0  0
    4.7007   -1.4848    2.2248 c   0  0  0  0  0  0  0  0  0  0  0  0
    4.4610   -2.8411    2.1831 c   0  0  0  0  0  0  0  0  0  0  0  0
    3.2860   -3.3439    1.6206 c   0  0  0  0  0  0  0  0  0  0  0  0
    3.1729   -4.7062    1.6951 o   0  0  0  0  0  0  0  0  0  0  0  0
    1.9106   -5.3182    1.8126 c   0  0  0  0  0  0  0  0  0  0  0  0
    2.3568   -2.4657    1.0534 c   0  0  0  0  0  0  0  0  0  0  0  0
    1.1518   -2.9197    0.3365 c   0  0  0  0  0  0  0  0  0  0  0  0
    1.1932   -3.6986   -0.7333 c   0  0  0  0  0  0  0  0  0  0  0  0
    0.6723    1.7190    0.5094 h   0  0  0  0  0  0  0  0  0  0  0  0
    1.8580    1.4619    1.8778 h   0  0  0  0  0  0  0  0  0  0  0  0
    1.1115   -0.5116   -0.3371 h   0  0  0  0  0  0  0  0  0  0  0  0
    3.9438    0.4583    1.7499 h   0  0  0  0  0  0  0  0  0  0  0  0
    5.6160   -1.1122    2.6597 h   0  0  0  0  0  0  0  0  0  0  0  0
    5.1680   -3.5490    2.5864 h   0  0  0  0  0  0  0  0  0  0  0  0
    2.0640   -6.2052    2.4306 h   0  0  0  0  0  0  0  0  0  0  0  0
    1.5182   -5.6237    0.8380 h   0  0  0  0  0  0  0  0  0  0  0  0
    1.1848   -4.6612    2.2973 h   0  0  0  0  0  0  0  0  0  0  0  0
    0.2053   -2.5343    0.6981 h   0  0  0  0  0  0  0  0  0  0  0  0
    2.1279   -4.0648   -1.1266 h   0  0  0  0  0  0  0  0  0  0  0  0
    0.3007   -3.9935   -1.2596 h   0  0  0  0  0  0  0  0  0  0  0  0
  1  2  2  0  0  0  0
  2  3  1  0  0  0  0
  3  4  4  0  0  0  0
  4  5  4  0  0  0  0
  5  6  4  0  0  0  0
  6  7  4  0  0  0  0
  7  8  1  0  0  0  0
  8  9  1  0  0  0  0
  3 10  4  0  0  0  0
  7 10  4  0  0  0  0
 10 11  1  0  0  0  0
 11 12  2  0  0  0  0
  1 13  1  0  0  0  0
  1 14  1  0  0  0  0
  2 15  1  0  0  0  0
  4 16  1  0  0  0  0
  5 17  1  0  0  0  0
  6 18  1  0  0  0  0
  9 19  1  0  0  0  0
  9 20  1  0  0  0  0
  9 21  1  0  0  0  0
 11 22  1  0  0  0  0
 12 23  1  0  0  0  0
 12 24  1  0  0  0  0
M  END
