 xtb: 6.5.0 (unknown)
          08112218563D

 17  0  0     0  0            999 V2000
    2.7068   -2.6403    0.1590 C   0  0  0  0  0  0  0  0  0  0  0  0
    1.5783   -2.0281   -0.1773 C   0  0  0  0  0  0  0  0  0  0  0  0
    1.3467   -0.5968   -0.0776 C   0  0  0  0  0  0  0  0  0  0  0  0
    2.3395    0.3399   -0.0639 C   0  0  0  0  0  0  0  0  0  0  0  0
    1.7464    1.9458    0.0259 S   0  0  0  0  0  0  0  0  0  0  0  0
    0.1315    1.3820    0.0521 C   0  0  0  0  0  0  0  0  0  0  0  0
    0.0464    0.0176   -0.0092 C   0  0  0  0  0  0  0  0  0  0  0  0
   -1.1840   -0.7430    0.0260 C   0  0  0  0  0  0  0  0  0  0  0  0
   -2.4166   -0.2569    0.0098 C   0  0  0  0  0  0  0  0  0  0  0  0
   -2.7794    1.0202   -0.0504 F   0  0  0  0  0  0  0  0  0  0  0  0
   -3.5074   -1.0196    0.0513 F   0  0  0  0  0  0  0  0  0  0  0  0
    2.8218   -3.7046    0.0499 H   0  0  0  0  0  0  0  0  0  0  0  0
    3.5499   -2.1073    0.5638 H   0  0  0  0  0  0  0  0  0  0  0  0
    0.7542   -2.6135   -0.5623 H   0  0  0  0  0  0  0  0  0  0  0  0
    3.3962    0.1766   -0.1277 H   0  0  0  0  0  0  0  0  0  0  0  0
   -0.6670    2.0923    0.1195 H   0  0  0  0  0  0  0  0  0  0  0  0
   -1.1066   -1.8176    0.0796 H   0  0  0  0  0  0  0  0  0  0  0  0
M  END
