
  xtb     02032211223D
 xtb: 6.4.1 (23d549d)
 21 21  0     0  0            999 V2000
    1.1964   -0.4332    0.7636 c   0  0  0  0  0  0  0  0  0  0  0  0
    2.2101   -0.0327    0.0191 c   0  0  0  0  0  0  0  0  0  0  0  0
    2.9684   -0.9243   -0.8824 c   0  0  0  0  0  0  0  0  0  0  0  0
    2.5885   -1.0537   -2.2119 c   0  0  0  0  0  0  0  0  0  0  0  0
    3.3023   -1.8843   -3.0651 c   0  0  0  0  0  0  0  0  0  0  0  0
    2.9568   -2.0378   -4.3733 o   0  0  0  0  0  0  0  0  0  0  0  0
    4.4033   -2.5869   -2.5893 c   0  0  0  0  0  0  0  0  0  0  0  0
    4.7867   -2.4620   -1.2634 c   0  0  0  0  0  0  0  0  0  0  0  0
    5.9518   -3.2137   -0.7532 c   0  0  0  0  0  0  0  0  0  0  0  0
    7.1903   -2.7590   -0.7893 c   0  0  0  0  0  0  0  0  0  0  0  0
    4.0661   -1.6312   -0.4130 c   0  0  0  0  0  0  0  0  0  0  0  0
    0.6620    0.2398    1.4127 h   0  0  0  0  0  0  0  0  0  0  0  0
    0.8619   -1.4577    0.7527 h   0  0  0  0  0  0  0  0  0  0  0  0
    2.5376    1.0003    0.0397 h   0  0  0  0  0  0  0  0  0  0  0  0
    1.7298   -0.5064   -2.5797 h   0  0  0  0  0  0  0  0  0  0  0  0
    2.1807   -1.4998   -4.5696 h   0  0  0  0  0  0  0  0  0  0  0  0
    4.9493   -3.2247   -3.2663 h   0  0  0  0  0  0  0  0  0  0  0  0
    5.7315   -4.1869   -0.3302 h   0  0  0  0  0  0  0  0  0  0  0  0
    7.4219   -1.7923   -1.2055 h   0  0  0  0  0  0  0  0  0  0  0  0
    8.0204   -3.3285   -0.4063 h   0  0  0  0  0  0  0  0  0  0  0  0
    4.3641   -1.5330    0.6205 h   0  0  0  0  0  0  0  0  0  0  0  0
  1  2  2  0  0  0  0
  2  3  1  0  0  0  0
  3  4  4  0  0  0  0
  4  5  4  0  0  0  0
  5  6  1  0  0  0  0
  5  7  4  0  0  0  0
  7  8  4  0  0  0  0
  8  9  1  0  0  0  0
  9 10  2  0  0  0  0
  3 11  4  0  0  0  0
  8 11  4  0  0  0  0
  1 12  1  0  0  0  0
  1 13  1  0  0  0  0
  2 14  1  0  0  0  0
  4 15  1  0  0  0  0
  6 16  1  0  0  0  0
  7 17  1  0  0  0  0
  9 18  1  0  0  0  0
 10 19  1  0  0  0  0
 10 20  1  0  0  0  0
 11 21  1  0  0  0  0
M  END
