23

C          2.80300       -0.47144        1.12162
C          2.28160       -0.28890       -0.09720
C          3.10440       -0.31820       -1.33610
S          2.73770        0.57630       -2.72180
C          4.05160        0.05760       -3.60500
C          4.36240        0.41830       -4.91360
C          5.49450       -0.14500       -5.50800
C          6.28120       -1.05990       -4.79330
C          5.95190       -1.40970       -3.47320
C          4.82390       -0.82980       -2.85530
C          4.30430       -1.04080       -1.53920
C          4.87240       -1.89850       -0.44870
C          4.18959       -2.53322        0.51078
H          2.15772       -0.44098        1.99380
H          3.86219       -0.64870        1.27386
H          1.21472       -0.11747       -0.15279
H          3.73930        1.11290       -5.46230
H          5.75680        0.11500       -6.52530
H          7.14640       -1.50520       -5.26710
H          6.57800       -2.13670       -2.99770
H          5.94057       -2.07356       -0.44038
H          3.11927       -2.52451        0.59852
H          4.72966       -3.14160        1.22965
23

C          2.17892       -1.33761        0.72763
C          2.28160       -0.28890       -0.09720
C          3.10440       -0.31820       -1.33610
S          2.73770        0.57630       -2.72180
C          4.05160        0.05760       -3.60500
C          4.36240        0.41830       -4.91360
C          5.49450       -0.14500       -5.50800
C          6.28120       -1.05990       -4.79330
C          5.95190       -1.40970       -3.47320
C          4.82390       -0.82980       -2.85530
C          4.30430       -1.04080       -1.53920
C          4.87240       -1.89850       -0.44870
C          4.74752       -1.70759        0.86950
H          1.56414       -1.26385        1.61904
H          2.69648       -2.27179        0.53805
H          1.73048        0.60223        0.17272
H          3.73930        1.11290       -5.46230
H          5.75680        0.11500       -6.52530
H          7.14640       -1.50520       -5.26710
H          6.57800       -2.13670       -2.99770
H          5.40721       -2.79629       -0.73096
H          4.18529       -0.90809        1.31453
H          5.19588       -2.42294        1.55202
23

C          2.50346        0.57788        0.89787
C          2.28160       -0.28890       -0.09720
C          3.10440       -0.31820       -1.33610
S          2.73770        0.57630       -2.72180
C          4.05160        0.05760       -3.60500
C          4.36240        0.41830       -4.91360
C          5.49450       -0.14500       -5.50800
C          6.28120       -1.05990       -4.79330
C          5.95190       -1.40970       -3.47320
C          4.82390       -0.82980       -2.85530
C          4.30430       -1.04080       -1.53920
C          4.87240       -1.89850       -0.44870
C          5.74539       -1.52465        0.49354
H          1.87352        0.55660        1.78146
H          3.29904        1.31379        0.85344
H          1.46500       -0.98651        0.03398
H          3.73930        1.11290       -5.46230
H          5.75680        0.11500       -6.52530
H          7.14640       -1.50520       -5.26710
H          6.57800       -2.13670       -2.99770
H          4.52260       -2.91962       -0.36713
H          6.13241       -0.52841        0.59879
H          6.05967       -2.24781        1.23977
23

C          1.26849       -1.13619        0.11821
C          2.28160       -0.28890       -0.09720
C          3.10440       -0.31820       -1.33610
S          2.73770        0.57630       -2.72180
C          4.05160        0.05760       -3.60500
C          4.36240        0.41830       -4.91360
C          5.49450       -0.14500       -5.50800
C          6.28120       -1.05990       -4.79330
C          5.95190       -1.40970       -3.47320
C          4.82390       -0.82980       -2.85530
C          4.30430       -1.04080       -1.53920
C          4.87240       -1.89850       -0.44870
C          4.61749       -3.19372       -0.23164
H          0.69888       -1.07177        1.03985
H          0.99224       -1.89812       -0.60263
H          2.48562        0.43770        0.67813
H          3.73930        1.11290       -5.46230
H          5.75680        0.11500       -6.52530
H          7.14640       -1.50520       -5.26710
H          6.57800       -2.13670       -2.99770
H          5.60084       -1.45858        0.22030
H          3.97739       -3.79613       -0.84867
H          5.11717       -3.70064        0.58809
23

C          1.26849       -1.13619        0.11821
C          2.28160       -0.28890       -0.09720
C          3.10440       -0.31820       -1.33610
S          2.73770        0.57630       -2.72180
C          4.05160        0.05760       -3.60500
C          4.36240        0.41830       -4.91360
C          5.49450       -0.14500       -5.50800
C          6.28120       -1.05990       -4.79330
C          5.95190       -1.40970       -3.47320
C          4.82390       -0.82980       -2.85530
C          4.30430       -1.04080       -1.53920
C          4.87240       -1.89850       -0.44870
C          5.74539       -1.52465        0.49354
H          0.69888       -1.07177        1.03985
H          0.99224       -1.89812       -0.60263
H          2.48562        0.43770        0.67813
H          3.73930        1.11290       -5.46230
H          5.75680        0.11500       -6.52530
H          7.14640       -1.50520       -5.26710
H          6.57800       -2.13670       -2.99770
H          4.52260       -2.91962       -0.36713
H          6.13241       -0.52841        0.59879
H          6.05967       -2.24781        1.23977
23

C          2.50346        0.57788        0.89787
C          2.28160       -0.28890       -0.09720
C          3.10440       -0.31820       -1.33610
S          2.73770        0.57630       -2.72180
C          4.05160        0.05760       -3.60500
C          4.36240        0.41830       -4.91360
C          5.49450       -0.14500       -5.50800
C          6.28120       -1.05990       -4.79330
C          5.95190       -1.40970       -3.47320
C          4.82390       -0.82980       -2.85530
C          4.30430       -1.04080       -1.53920
C          4.87240       -1.89850       -0.44870
C          4.61749       -3.19372       -0.23164
H          1.87352        0.55660        1.78146
H          3.29904        1.31379        0.85344
H          1.46500       -0.98651        0.03398
H          3.73930        1.11290       -5.46230
H          5.75680        0.11500       -6.52530
H          7.14640       -1.50520       -5.26710
H          6.57800       -2.13670       -2.99770
H          5.60084       -1.45858        0.22030
H          3.97739       -3.79613       -0.84867
H          5.11717       -3.70064        0.58809
23

C          2.50346        0.57788        0.89787
C          2.28160       -0.28890       -0.09720
C          3.10440       -0.31820       -1.33610
S          2.73770        0.57630       -2.72180
C          4.05160        0.05760       -3.60500
C          4.36240        0.41830       -4.91360
C          5.49450       -0.14500       -5.50800
C          6.28120       -1.05990       -4.79330
C          5.95190       -1.40970       -3.47320
C          4.82390       -0.82980       -2.85530
C          4.30430       -1.04080       -1.53920
C          4.87240       -1.89850       -0.44870
C          5.59429       -3.01465       -0.59965
H          1.87352        0.55660        1.78146
H          3.29904        1.31379        0.85344
H          1.46500       -0.98651        0.03398
H          3.73930        1.11290       -5.46230
H          5.75680        0.11500       -6.52530
H          7.14640       -1.50520       -5.26710
H          6.57800       -2.13670       -2.99770
H          4.73491       -1.57931        0.57645
H          5.88340       -3.42447       -1.54930
H          5.96271       -3.52921        0.28243
23

C          2.50346        0.57788        0.89787
C          2.28160       -0.28890       -0.09720
C          3.10440       -0.31820       -1.33610
S          2.73770        0.57630       -2.72180
C          4.05160        0.05760       -3.60500
C          4.36240        0.41830       -4.91360
C          5.49450       -0.14500       -5.50800
C          6.28120       -1.05990       -4.79330
C          5.95190       -1.40970       -3.47320
C          4.82390       -0.82980       -2.85530
C          4.30430       -1.04080       -1.53920
C          4.87240       -1.89850       -0.44870
C          6.16425       -2.17120       -0.23320
H          1.87352        0.55660        1.78146
H          3.29904        1.31379        0.85344
H          1.46500       -0.98651        0.03398
H          3.73930        1.11290       -5.46230
H          5.75680        0.11500       -6.52530
H          7.14640       -1.50520       -5.26710
H          6.57800       -2.13670       -2.99770
H          4.19004       -2.31763        0.27960
H          6.97241       -1.77317       -0.81784
H          6.43899       -2.79504        0.61175
23

C          2.80300       -0.47144        1.12162
C          2.28160       -0.28890       -0.09720
C          3.10440       -0.31820       -1.33610
S          2.73770        0.57630       -2.72180
C          4.05160        0.05760       -3.60500
C          4.36240        0.41830       -4.91360
C          5.49450       -0.14500       -5.50800
C          6.28120       -1.05990       -4.79330
C          5.95190       -1.40970       -3.47320
C          4.82390       -0.82980       -2.85530
C          4.30430       -1.04080       -1.53920
C          4.87240       -1.89850       -0.44870
C          5.59429       -3.01465       -0.59965
H          2.15772       -0.44098        1.99380
H          3.86219       -0.64870        1.27386
H          1.21472       -0.11747       -0.15279
H          3.73930        1.11290       -5.46230
H          5.75680        0.11500       -6.52530
H          7.14640       -1.50520       -5.26710
H          6.57800       -2.13670       -2.99770
H          4.73491       -1.57931        0.57645
H          5.88340       -3.42447       -1.54930
H          5.96271       -3.52921        0.28243
23

C          2.80300       -0.47144        1.12162
C          2.28160       -0.28890       -0.09720
C          3.10440       -0.31820       -1.33610
S          2.73770        0.57630       -2.72180
C          4.05160        0.05760       -3.60500
C          4.36240        0.41830       -4.91360
C          5.49450       -0.14500       -5.50800
C          6.28120       -1.05990       -4.79330
C          5.95190       -1.40970       -3.47320
C          4.82390       -0.82980       -2.85530
C          4.30430       -1.04080       -1.53920
C          4.87240       -1.89850       -0.44870
C          6.16425       -2.17120       -0.23320
H          2.15772       -0.44098        1.99380
H          3.86219       -0.64870        1.27386
H          1.21472       -0.11747       -0.15279
H          3.73930        1.11290       -5.46230
H          5.75680        0.11500       -6.52530
H          7.14640       -1.50520       -5.26710
H          6.57800       -2.13670       -2.99770
H          4.19004       -2.31763        0.27960
H          6.97241       -1.77317       -0.81784
H          6.43899       -2.79504        0.61175
