21

C          1.30793        0.30461        0.32724
C          2.37090        0.38200       -0.48810
C          3.00660       -0.77800       -1.20260
C          4.05730       -1.51330       -0.60720
C          4.66070       -2.60090       -1.26650
C          5.77020       -3.40440       -0.67200
C          7.07696       -3.14583       -0.81893
C          4.19070       -2.93870       -2.54120
F          4.73060       -3.97590       -3.23040
N          3.18370       -2.23300       -3.10740
C          2.57770       -1.17960       -2.49870
N          1.53370       -0.52740       -3.20830
H          0.92980        1.20900        0.79391
H          0.79121       -0.61509        0.56058
H          2.76971        1.37749       -0.60987
H          4.40840       -1.24510        0.36920
H          5.51127       -4.26923       -0.06763
H          7.45837       -2.31340       -1.39396
H          7.80447       -3.79486       -0.34145
H          1.27210       -0.86860       -4.14480
H          1.01250        0.27750       -2.84540
21

C          1.30793        0.30461        0.32724
C          2.37090        0.38200       -0.48810
C          3.00660       -0.77800       -1.20260
C          4.05730       -1.51330       -0.60720
C          4.66070       -2.60090       -1.26650
C          5.77020       -3.40440       -0.67200
C          5.61281       -4.50280        0.07955
C          4.19070       -2.93870       -2.54120
F          4.73060       -3.97590       -3.23040
N          3.18370       -2.23300       -3.10740
C          2.57770       -1.17960       -2.49870
N          1.53370       -0.52740       -3.20830
H          0.92980        1.20900        0.79391
H          0.79121       -0.61509        0.56058
H          2.76971        1.37749       -0.60987
H          4.40840       -1.24510        0.36920
H          6.79196       -3.08545       -0.85781
H          4.64709       -4.91893        0.33114
H          6.48983       -5.01499        0.46294
H          1.27210       -0.86860       -4.14480
H          1.01250        0.27750       -2.84540
21

C          2.76831        1.66074       -0.57513
C          2.37090        0.38200       -0.48810
C          3.00660       -0.77800       -1.20260
C          4.05730       -1.51330       -0.60720
C          4.66070       -2.60090       -1.26650
C          5.77020       -3.40440       -0.67200
C          7.07696       -3.14583       -0.81893
C          4.19070       -2.93870       -2.54120
F          4.73060       -3.97590       -3.23040
N          3.18370       -2.23300       -3.10740
C          2.57770       -1.17960       -2.49870
N          1.53370       -0.52740       -3.20830
H          2.23440        2.42196       -0.01462
H          3.59893        1.99543       -1.17956
H          1.52111        0.22063        0.15741
H          4.40840       -1.24510        0.36920
H          5.51127       -4.26923       -0.06763
H          7.45837       -2.31340       -1.39396
H          7.80447       -3.79486       -0.34145
H          1.27210       -0.86860       -4.14480
H          1.01250        0.27750       -2.84540
21

C          2.76831        1.66074       -0.57513
C          2.37090        0.38200       -0.48810
C          3.00660       -0.77800       -1.20260
C          4.05730       -1.51330       -0.60720
C          4.66070       -2.60090       -1.26650
C          5.77020       -3.40440       -0.67200
C          5.61281       -4.50280        0.07955
C          4.19070       -2.93870       -2.54120
F          4.73060       -3.97590       -3.23040
N          3.18370       -2.23300       -3.10740
C          2.57770       -1.17960       -2.49870
N          1.53370       -0.52740       -3.20830
H          2.23440        2.42196       -0.01462
H          3.59893        1.99543       -1.17956
H          1.52111        0.22063        0.15741
H          4.40840       -1.24510        0.36920
H          6.79196       -3.08545       -0.85781
H          4.64709       -4.91893        0.33114
H          6.48983       -5.01499        0.46294
H          1.27210       -0.86860       -4.14480
H          1.01250        0.27750       -2.84540
21

C          1.83274        1.45920       -1.08031
C          2.37090        0.38200       -0.48810
C          3.00660       -0.77800       -1.20260
C          4.05730       -1.51330       -0.60720
C          4.66070       -2.60090       -1.26650
C          5.77020       -3.40440       -0.67200
C          6.38212       -4.43728       -1.26764
C          4.19070       -2.93870       -2.54120
F          4.73060       -3.97590       -3.23040
N          3.18370       -2.23300       -3.10740
C          2.57770       -1.17960       -2.49870
N          1.53370       -0.52740       -3.20830
H          1.39753        2.24111       -0.46559
H          1.79781        1.60619       -2.15011
H          2.31907        0.39153        0.58990
H          4.40840       -1.24510        0.36920
H          6.12082       -3.13958        0.32157
H          6.12424       -4.79309       -2.25555
H          7.18155       -4.95442       -0.74613
H          1.27210       -0.86860       -4.14480
H          1.01250        0.27750       -2.84540
21

C          1.83274        1.45920       -1.08031
C          2.37090        0.38200       -0.48810
C          3.00660       -0.77800       -1.20260
C          4.05730       -1.51330       -0.60720
C          4.66070       -2.60090       -1.26650
C          5.77020       -3.40440       -0.67200
C          5.61281       -4.50280        0.07955
C          4.19070       -2.93870       -2.54120
F          4.73060       -3.97590       -3.23040
N          3.18370       -2.23300       -3.10740
C          2.57770       -1.17960       -2.49870
N          1.53370       -0.52740       -3.20830
H          1.39753        2.24111       -0.46559
H          1.79781        1.60619       -2.15011
H          2.31907        0.39153        0.58990
H          4.40840       -1.24510        0.36920
H          6.79196       -3.08545       -0.85781
H          4.64709       -4.91893        0.33114
H          6.48983       -5.01499        0.46294
H          1.27210       -0.86860       -4.14480
H          1.01250        0.27750       -2.84540
21

C          1.30793        0.30461        0.32724
C          2.37090        0.38200       -0.48810
C          3.00660       -0.77800       -1.20260
C          4.05730       -1.51330       -0.60720
C          4.66070       -2.60090       -1.26650
C          5.77020       -3.40440       -0.67200
C          5.99927       -4.70285       -0.91206
C          4.19070       -2.93870       -2.54120
F          4.73060       -3.97590       -3.23040
N          3.18370       -2.23300       -3.10740
C          2.57770       -1.17960       -2.49870
N          1.53370       -0.52740       -3.20830
H          0.92980        1.20900        0.79391
H          0.79121       -0.61509        0.56058
H          2.76971        1.37749       -0.60987
H          4.40840       -1.24510        0.36920
H          6.45545       -2.90833        0.00960
H          5.38914       -5.30302       -1.57283
H          6.83766       -5.19344       -0.42738
H          1.27210       -0.86860       -4.14480
H          1.01250        0.27750       -2.84540
21

C          1.30793        0.30461        0.32724
C          2.37090        0.38200       -0.48810
C          3.00660       -0.77800       -1.20260
C          4.05730       -1.51330       -0.60720
C          4.66070       -2.60090       -1.26650
C          5.77020       -3.40440       -0.67200
C          6.38212       -4.43728       -1.26764
C          4.19070       -2.93870       -2.54120
F          4.73060       -3.97590       -3.23040
N          3.18370       -2.23300       -3.10740
C          2.57770       -1.17960       -2.49870
N          1.53370       -0.52740       -3.20830
H          0.92980        1.20900        0.79391
H          0.79121       -0.61509        0.56058
H          2.76971        1.37749       -0.60987
H          4.40840       -1.24510        0.36920
H          6.12082       -3.13958        0.32157
H          6.12424       -4.79309       -2.25555
H          7.18155       -4.95442       -0.74613
H          1.27210       -0.86860       -4.14480
H          1.01250        0.27750       -2.84540
21

C          2.76831        1.66074       -0.57513
C          2.37090        0.38200       -0.48810
C          3.00660       -0.77800       -1.20260
C          4.05730       -1.51330       -0.60720
C          4.66070       -2.60090       -1.26650
C          5.77020       -3.40440       -0.67200
C          5.99927       -4.70285       -0.91206
C          4.19070       -2.93870       -2.54120
F          4.73060       -3.97590       -3.23040
N          3.18370       -2.23300       -3.10740
C          2.57770       -1.17960       -2.49870
N          1.53370       -0.52740       -3.20830
H          2.23440        2.42196       -0.01462
H          3.59893        1.99543       -1.17956
H          1.52111        0.22063        0.15741
H          4.40840       -1.24510        0.36920
H          6.45545       -2.90833        0.00960
H          5.38914       -5.30302       -1.57283
H          6.83766       -5.19344       -0.42738
H          1.27210       -0.86860       -4.14480
H          1.01250        0.27750       -2.84540
21

C          1.36291        1.12960       -0.96321
C          2.37090        0.38200       -0.48810
C          3.00660       -0.77800       -1.20260
C          4.05730       -1.51330       -0.60720
C          4.66070       -2.60090       -1.26650
C          5.77020       -3.40440       -0.67200
C          5.99927       -4.70285       -0.91206
C          4.19070       -2.93870       -2.54120
F          4.73060       -3.97590       -3.23040
N          3.18370       -2.23300       -3.10740
C          2.57770       -1.17960       -2.49870
N          1.53370       -0.52740       -3.20830
H          0.97764        1.94622       -0.36040
H          0.89414        0.97152       -1.92371
H          2.72046        0.67253        0.49081
H          4.40840       -1.24510        0.36920
H          6.45545       -2.90833        0.00960
H          5.38914       -5.30302       -1.57283
H          6.83766       -5.19344       -0.42738
H          1.27210       -0.86860       -4.14480
H          1.01250        0.27750       -2.84540
