26

C          1.18693       -0.63125        0.50056
C          2.19660        0.14040        0.07670
C          2.93270        1.12330        0.92060
C          2.63400        1.34520        2.28080
C          3.35480        2.28430        3.02360
C          4.38470        3.02180        2.42590
C          5.10730        3.97090        3.16520
C          6.13760        4.71750        2.56740
C          6.86040        5.71460        3.40600
C          7.04673        5.61416        4.72878
C          6.43860        4.49310        1.20810
C          5.72400        3.54750        0.46740
C          4.69500        2.80880        1.06590
C          3.96980        1.86270        0.32520
H          0.71213       -1.31698       -0.19388
H          0.81028       -0.60742        1.51450
H          2.49320        0.03786       -0.96385
H          1.84900        0.80390        2.78600
H          3.10360        2.43550        4.06700
H          4.86390        4.13220        4.20970
H          7.27361        6.59138        2.91417
H          6.68084        4.78258        5.31564
H          7.59100        6.39476        5.25100
H          7.22030        5.03810        0.70160
H          5.97540        3.39610       -0.57580
H          4.21110        1.70340       -0.72000
26

C          0.91496       -0.21008        0.24726
C          2.19660        0.14040        0.07670
C          2.93270        1.12330        0.92060
C          2.63400        1.34520        2.28080
C          3.35480        2.28430        3.02360
C          4.38470        3.02180        2.42590
C          5.10730        3.97090        3.16520
C          6.13760        4.71750        2.56740
C          6.86040        5.71460        3.40600
C          6.32806        6.37630        4.44202
C          6.43860        4.49310        1.20810
C          5.72400        3.54750        0.46740
C          4.69500        2.80880        1.06590
C          3.96980        1.86270        0.32520
H          0.46694       -0.93602       -0.42372
H          0.28956        0.19881        1.02968
H          2.73217       -0.33018       -0.74364
H          1.84900        0.80390        2.78600
H          3.10360        2.43550        4.06700
H          4.86390        4.13220        4.20970
H          7.89987        5.92435        3.16749
H          5.30528        6.24131        4.76681
H          6.93974        7.08315        4.99382
H          7.22030        5.03810        0.70160
H          5.97540        3.39610       -0.57580
H          4.21110        1.70340       -0.72000
26

C          2.53782       -1.14567       -0.07861
C          2.19660        0.14040        0.07670
C          2.93270        1.12330        0.92060
C          2.63400        1.34520        2.28080
C          3.35480        2.28430        3.02360
C          4.38470        3.02180        2.42590
C          5.10730        3.97090        3.16520
C          6.13760        4.71750        2.56740
C          6.86040        5.71460        3.40600
C          6.51027        7.00038        3.54294
C          6.43860        4.49310        1.20810
C          5.72400        3.54750        0.46740
C          4.69500        2.80880        1.06590
C          3.96980        1.86270        0.32520
H          1.93409       -1.78427       -0.71548
H          3.39626       -1.59196        0.40555
H          1.31271        0.48426       -0.45410
H          1.84900        0.80390        2.78600
H          3.10360        2.43550        4.06700
H          4.86390        4.13220        4.20970
H          7.73762        5.38052        3.95395
H          5.65399        7.43581        3.04598
H          7.10214        7.64868        4.18143
H          7.22030        5.03810        0.70160
H          5.97540        3.39610       -0.57580
H          4.21110        1.70340       -0.72000
26

C          1.10455        0.41680       -0.64825
C          2.19660        0.14040        0.07670
C          2.93270        1.12330        0.92060
C          2.63400        1.34520        2.28080
C          3.35480        2.28430        3.02360
C          4.38470        3.02180        2.42590
C          5.10730        3.97090        3.16520
C          6.13760        4.71750        2.56740
C          6.86040        5.71460        3.40600
C          7.96311        5.45965        4.12265
C          6.43860        4.49310        1.20810
C          5.72400        3.54750        0.46740
C          4.69500        2.80880        1.06590
C          3.96980        1.86270        0.32520
H          0.64024       -0.37011       -1.23400
H          0.65229        1.39897       -0.68456
H          2.56937       -0.87981        0.03853
H          1.84900        0.80390        2.78600
H          3.10360        2.43550        4.06700
H          4.86390        4.13220        4.20970
H          6.47160        6.72896        3.44184
H          8.43477        4.48689        4.15548
H          8.41870        6.25706        4.70132
H          7.22030        5.03810        0.70160
H          5.97540        3.39610       -0.57580
H          4.21110        1.70340       -0.72000
26

C          2.53782       -1.14567       -0.07861
C          2.19660        0.14040        0.07670
C          2.93270        1.12330        0.92060
C          2.63400        1.34520        2.28080
C          3.35480        2.28430        3.02360
C          4.38470        3.02180        2.42590
C          5.10730        3.97090        3.16520
C          6.13760        4.71750        2.56740
C          6.86040        5.71460        3.40600
C          7.96311        5.45965        4.12265
C          6.43860        4.49310        1.20810
C          5.72400        3.54750        0.46740
C          4.69500        2.80880        1.06590
C          3.96980        1.86270        0.32520
H          1.93409       -1.78427       -0.71548
H          3.39626       -1.59196        0.40555
H          1.31271        0.48426       -0.45410
H          1.84900        0.80390        2.78600
H          3.10360        2.43550        4.06700
H          4.86390        4.13220        4.20970
H          6.47160        6.72896        3.44184
H          8.43477        4.48689        4.15548
H          8.41870        6.25706        4.70132
H          7.22030        5.03810        0.70160
H          5.97540        3.39610       -0.57580
H          4.21110        1.70340       -0.72000
26

C          1.10455        0.41680       -0.64825
C          2.19660        0.14040        0.07670
C          2.93270        1.12330        0.92060
C          2.63400        1.34520        2.28080
C          3.35480        2.28430        3.02360
C          4.38470        3.02180        2.42590
C          5.10730        3.97090        3.16520
C          6.13760        4.71750        2.56740
C          6.86040        5.71460        3.40600
C          6.51027        7.00038        3.54294
C          6.43860        4.49310        1.20810
C          5.72400        3.54750        0.46740
C          4.69500        2.80880        1.06590
C          3.96980        1.86270        0.32520
H          0.64024       -0.37011       -1.23400
H          0.65229        1.39897       -0.68456
H          2.56937       -0.87981        0.03853
H          1.84900        0.80390        2.78600
H          3.10360        2.43550        4.06700
H          4.86390        4.13220        4.20970
H          7.73762        5.38052        3.95395
H          5.65399        7.43581        3.04598
H          7.10214        7.64868        4.18143
H          7.22030        5.03810        0.70160
H          5.97540        3.39610       -0.57580
H          4.21110        1.70340       -0.72000
26

C          1.10455        0.41680       -0.64825
C          2.19660        0.14040        0.07670
C          2.93270        1.12330        0.92060
C          2.63400        1.34520        2.28080
C          3.35480        2.28430        3.02360
C          4.38470        3.02180        2.42590
C          5.10730        3.97090        3.16520
C          6.13760        4.71750        2.56740
C          6.86040        5.71460        3.40600
C          8.14147        6.07055        3.24256
C          6.43860        4.49310        1.20810
C          5.72400        3.54750        0.46740
C          4.69500        2.80880        1.06590
C          3.96980        1.86270        0.32520
H          0.64024       -0.37011       -1.23400
H          0.65229        1.39897       -0.68456
H          2.56937       -0.87981        0.03853
H          1.84900        0.80390        2.78600
H          3.10360        2.43550        4.06700
H          4.86390        4.13220        4.20970
H          6.31278        6.19661        4.21170
H          8.77611        5.65618        2.47098
H          8.57766        6.81065        3.90608
H          7.22030        5.03810        0.70160
H          5.97540        3.39610       -0.57580
H          4.21110        1.70340       -0.72000
26

C          2.53782       -1.14567       -0.07861
C          2.19660        0.14040        0.07670
C          2.93270        1.12330        0.92060
C          2.63400        1.34520        2.28080
C          3.35480        2.28430        3.02360
C          4.38470        3.02180        2.42590
C          5.10730        3.97090        3.16520
C          6.13760        4.71750        2.56740
C          6.86040        5.71460        3.40600
C          8.14147        6.07055        3.24256
C          6.43860        4.49310        1.20810
C          5.72400        3.54750        0.46740
C          4.69500        2.80880        1.06590
C          3.96980        1.86270        0.32520
H          1.93409       -1.78427       -0.71548
H          3.39626       -1.59196        0.40555
H          1.31271        0.48426       -0.45410
H          1.84900        0.80390        2.78600
H          3.10360        2.43550        4.06700
H          4.86390        4.13220        4.20970
H          6.31278        6.19661        4.21170
H          8.77611        5.65618        2.47098
H          8.57766        6.81065        3.90608
H          7.22030        5.03810        0.70160
H          5.97540        3.39610       -0.57580
H          4.21110        1.70340       -0.72000
26

C          1.99913        0.25755       -1.24307
C          2.19660        0.14040        0.07670
C          2.93270        1.12330        0.92060
C          2.63400        1.34520        2.28080
C          3.35480        2.28430        3.02360
C          4.38470        3.02180        2.42590
C          5.10730        3.97090        3.16520
C          6.13760        4.71750        2.56740
C          6.86040        5.71460        3.40600
C          7.96311        5.45965        4.12265
C          6.43860        4.49310        1.20810
C          5.72400        3.54750        0.46740
C          4.69500        2.80880        1.06590
C          3.96980        1.86270        0.32520
H          1.44990       -0.51568       -1.77068
H          2.36472        1.09428       -1.82337
H          1.78837       -0.74308        0.56050
H          1.84900        0.80390        2.78600
H          3.10360        2.43550        4.06700
H          4.86390        4.13220        4.20970
H          6.47160        6.72896        3.44184
H          8.43477        4.48689        4.15548
H          8.41870        6.25706        4.70132
H          7.22030        5.03810        0.70160
H          5.97540        3.39610       -0.57580
H          4.21110        1.70340       -0.72000
26

C          1.99913        0.25755       -1.24307
C          2.19660        0.14040        0.07670
C          2.93270        1.12330        0.92060
C          2.63400        1.34520        2.28080
C          3.35480        2.28430        3.02360
C          4.38470        3.02180        2.42590
C          5.10730        3.97090        3.16520
C          6.13760        4.71750        2.56740
C          6.86040        5.71460        3.40600
C          6.51027        7.00038        3.54294
C          6.43860        4.49310        1.20810
C          5.72400        3.54750        0.46740
C          4.69500        2.80880        1.06590
C          3.96980        1.86270        0.32520
H          1.44990       -0.51568       -1.77068
H          2.36472        1.09428       -1.82337
H          1.78837       -0.74308        0.56050
H          1.84900        0.80390        2.78600
H          3.10360        2.43550        4.06700
H          4.86390        4.13220        4.20970
H          7.73762        5.38052        3.95395
H          5.65399        7.43581        3.04598
H          7.10214        7.64868        4.18143
H          7.22030        5.03810        0.70160
H          5.97540        3.39610       -0.57580
H          4.21110        1.70340       -0.72000
