
 OpenBabel02032210553D

 26 27  0  0  0  0  0  0  0  0999 V2000
    0.9868   -0.2862    0.3635 C   0  0  0  0  0  0  0  0  0  0  0  0
    2.2692    0.0442    0.1590 C   0  0  0  0  0  0  0  0  0  0  0  0
    3.0104    1.0201    0.9704 C   0  0  0  0  0  0  0  0  0  0  0  0
    2.7358    1.2324    2.3254 C   0  0  0  0  0  0  0  0  0  0  0  0
    3.4574    2.1760    3.0619 C   0  0  0  0  0  0  0  0  0  0  0  0
    4.4825    2.9221    2.4619 C   0  0  0  0  0  0  0  0  0  0  0  0
    5.2111    3.8866    3.1820 C   0  0  0  0  0  0  0  0  0  0  0  0
    6.2249    4.6403    2.5744 C   0  0  0  0  0  0  0  0  0  0  0  0
    6.9661    5.6173    3.3871 C   0  0  0  0  0  0  0  0  0  0  0  0
    7.5238    6.7427    2.9218 C   0  0  0  0  0  0  0  0  0  0  0  0
    6.5287    4.3940    1.2314 C   0  0  0  0  0  0  0  0  0  0  0  0
    5.8162    3.4370    0.5034 C   0  0  0  0  0  0  0  0  0  0  0  0
    4.7877    2.6971    1.1031 C   0  0  0  0  0  0  0  0  0  0  0  0
    4.0537    1.7419    0.3767 C   0  0  0  0  0  0  0  0  0  0  0  0
    0.4914   -1.0011   -0.2857 H   0  0  0  0  0  0  0  0  0  0  0  0
    0.3916    0.1511    1.1579 H   0  0  0  0  0  0  0  0  0  0  0  0
    2.8062   -0.4034   -0.6745 H   0  0  0  0  0  0  0  0  0  0  0  0
    1.9564    0.6663    2.8295 H   0  0  0  0  0  0  0  0  0  0  0  0
    3.2073    2.3241    4.1101 H   0  0  0  0  0  0  0  0  0  0  0  0
    4.9725    4.0580    4.2316 H   0  0  0  0  0  0  0  0  0  0  0  0
    7.0371    5.3974    4.4505 H   0  0  0  0  0  0  0  0  0  0  0  0
    7.4698    7.0390    1.8796 H   0  0  0  0  0  0  0  0  0  0  0  0
    8.0441    7.4143    3.5979 H   0  0  0  0  0  0  0  0  0  0  0  0
    7.3272    4.9380    0.7337 H   0  0  0  0  0  0  0  0  0  0  0  0
    6.0736    3.2749   -0.5408 H   0  0  0  0  0  0  0  0  0  0  0  0
    4.2906    1.5749   -0.6723 H   0  0  0  0  0  0  0  0  0  0  0  0
  1  2  2  0  0  0  0
  1 15  1  0  0  0  0
  1 16  1  0  0  0  0
  2  3  1  0  0  0  0
  2 17  1  0  0  0  0
  3  4  1  0  0  0  0
  3 14  2  0  0  0  0
  4  5  2  0  0  0  0
  4 18  1  0  0  0  0
  5  6  1  0  0  0  0
  5 19  1  0  0  0  0
  6  7  1  0  0  0  0
  6 13  2  0  0  0  0
  7  8  2  0  0  0  0
  7 20  1  0  0  0  0
  8  9  1  0  0  0  0
  8 11  1  0  0  0  0
  9 10  2  0  0  0  0
  9 21  1  0  0  0  0
 10 22  1  0  0  0  0
 10 23  1  0  0  0  0
 11 12  2  0  0  0  0
 11 24  1  0  0  0  0
 12 13  1  0  0  0  0
 12 25  1  0  0  0  0
 13 14  1  0  0  0  0
 14 26  1  0  0  0  0
M  END
