
  xtb     02032211353D
 xtb: 6.4.1 (23d549d)
 26 26  0     0  0            999 V2000
   -4.5054   -1.3828    0.2875 C   0  0  0  0  0  0  0  0  0  0  0  0
   -3.6419   -0.4062    0.5381 C   0  0  0  0  0  0  0  0  0  0  0  0
   -2.2458   -0.3547    0.1223 C   0  0  0  0  0  0  0  0  0  0  0  0
   -1.5883   -1.4224   -0.4903 C   0  0  0  0  0  0  0  0  0  0  0  0
   -0.2626   -1.3125   -0.8519 C   0  0  0  0  0  0  0  0  0  0  0  0
    0.4577   -0.1405   -0.6440 C   0  0  0  0  0  0  0  0  0  0  0  0
    1.9238   -0.1297   -0.9913 C   0  0  0  0  0  0  0  0  0  0  0  0
    2.7248   -0.5517    0.2373 C   0  0  0  0  0  0  0  0  0  0  0  0
    3.3489   -1.5683    0.3105 O   0  0  0  0  0  0  0  0  0  0  0  0
    2.6740    0.3156    1.2581 O   0  0  0  0  0  0  0  0  0  0  0  0
   -0.1862    0.9404   -0.0310 C   0  0  0  0  0  0  0  0  0  0  0  0
    0.4647    2.2355    0.2487 C   0  0  0  0  0  0  0  0  0  0  0  0
    1.0401    3.0154   -0.6550 C   0  0  0  0  0  0  0  0  0  0  0  0
   -1.5162    0.8084    0.3525 C   0  0  0  0  0  0  0  0  0  0  0  0
   -5.5232   -1.3310    0.6340 H   0  0  0  0  0  0  0  0  0  0  0  0
   -4.2430   -2.2648   -0.2710 H   0  0  0  0  0  0  0  0  0  0  0  0
   -3.9764    0.4597    1.0966 H   0  0  0  0  0  0  0  0  0  0  0  0
   -2.1093   -2.3490   -0.6705 H   0  0  0  0  0  0  0  0  0  0  0  0
    0.2375   -2.1561   -1.3046 H   0  0  0  0  0  0  0  0  0  0  0  0
    2.2626    0.8590   -1.2997 H   0  0  0  0  0  0  0  0  0  0  0  0
    2.1278   -0.8441   -1.7883 H   0  0  0  0  0  0  0  0  0  0  0  0
    2.1103    1.0819    1.0597 H   0  0  0  0  0  0  0  0  0  0  0  0
    0.3700    2.5825    1.2728 H   0  0  0  0  0  0  0  0  0  0  0  0
    1.0909    2.7440   -1.6970 H   0  0  0  0  0  0  0  0  0  0  0  0
    1.4594    3.9718   -0.3921 H   0  0  0  0  0  0  0  0  0  0  0  0
   -1.9997    1.6491    0.8313 H   0  0  0  0  0  0  0  0  0  0  0  0
  1  2  2  0  0  0  0
  2  3  1  0  0  0  0
  3  4  4  0  0  0  0
  4  5  4  0  0  0  0
  5  6  4  0  0  0  0
  6  7  1  0  0  0  0
  7  8  1  0  0  0  0
  8  9  2  0  0  0  0
  8 10  1  0  0  0  0
  6 11  4  0  0  0  0
 11 12  1  0  0  0  0
 12 13  2  0  0  0  0
  3 14  4  0  0  0  0
 11 14  4  0  0  0  0
  1 15  1  0  0  0  0
  1 16  1  0  0  0  0
  2 17  1  0  0  0  0
  4 18  1  0  0  0  0
  5 19  1  0  0  0  0
  7 20  1  0  0  0  0
  7 21  1  0  0  0  0
 10 22  1  0  0  0  0
 12 23  1  0  0  0  0
 13 24  1  0  0  0  0
 13 25  1  0  0  0  0
 14 26  1  0  0  0  0
M  END
