
 OpenBabel02032211213D

 23 23  0  0  0  0  0  0  0  0999 V2000
    1.0769   -0.0991    0.2143 C   0  0  0  0  0  0  0  0  0  0  0  0
    2.3731   -0.1067   -0.1262 C   0  0  0  0  0  0  0  0  0  0  0  0
    3.0088    0.9186   -0.9603 C   0  0  0  0  0  0  0  0  0  0  0  0
    4.0749    0.5875   -1.7826 C   0  0  0  0  0  0  0  0  0  0  0  0
    4.7220    1.4663   -2.5773 N   0  0  0  0  0  0  0  0  0  0  0  0
    4.2990    2.7574   -2.5623 C   0  0  0  0  0  0  0  0  0  0  0  0
    4.9581    3.6435   -3.3900 O   0  0  0  0  0  0  0  0  0  0  0  0
    5.9872    3.0387   -4.1690 C   0  0  0  0  0  0  0  0  0  0  0  0
    3.2476    3.2226   -1.7589 C   0  0  0  0  0  0  0  0  0  0  0  0
    2.7099    4.5975   -1.6559 C   0  0  0  0  0  0  0  0  0  0  0  0
    3.0676    5.6948   -2.3344 C   0  0  0  0  0  0  0  0  0  0  0  0
    2.6202    2.2608   -0.9446 C   0  0  0  0  0  0  0  0  0  0  0  0
    0.6623   -0.8939    0.8238 H   0  0  0  0  0  0  0  0  0  0  0  0
    0.3896    0.6763   -0.1121 H   0  0  0  0  0  0  0  0  0  0  0  0
    3.0044   -0.9282    0.2056 H   0  0  0  0  0  0  0  0  0  0  0  0
    4.4507   -0.4305   -1.8404 H   0  0  0  0  0  0  0  0  0  0  0  0
    6.4345    3.8154   -4.7960 H   0  0  0  0  0  0  0  0  0  0  0  0
    5.5823    2.2678   -4.8349 H   0  0  0  0  0  0  0  0  0  0  0  0
    6.7789    2.6314   -3.5300 H   0  0  0  0  0  0  0  0  0  0  0  0
    1.9059    4.7241   -0.9308 H   0  0  0  0  0  0  0  0  0  0  0  0
    3.8475    5.7089   -3.0849 H   0  0  0  0  0  0  0  0  0  0  0  0
    2.5620    6.6370   -2.1427 H   0  0  0  0  0  0  0  0  0  0  0  0
    1.8137    2.5668   -0.2818 H   0  0  0  0  0  0  0  0  0  0  0  0
  1  2  2  0  0  0  0
  1 13  1  0  0  0  0
  1 14  1  0  0  0  0
  2  3  1  0  0  0  0
  2 15  1  0  0  0  0
  3  4  1  0  0  0  0
  3 12  2  0  0  0  0
  4  5  2  0  0  0  0
  4 16  1  0  0  0  0
  5  6  1  0  0  0  0
  6  7  1  0  0  0  0
  6  9  2  0  0  0  0
  7  8  1  0  0  0  0
  8 17  1  0  0  0  0
  8 18  1  0  0  0  0
  8 19  1  0  0  0  0
  9 10  1  0  0  0  0
  9 12  1  0  0  0  0
 10 11  2  0  0  0  0
 10 20  1  0  0  0  0
 11 21  1  0  0  0  0
 11 22  1  0  0  0  0
 12 23  1  0  0  0  0
M  END
