
  xtb     02032211213D
 xtb: 6.4.1 (23d549d)
 23 23  0     0  0            999 V2000
    1.6600   -0.2345    0.7062 c   0  0  0  0  0  0  0  0  0  0  0  0
    2.5799   -0.3235   -0.2471 c   0  0  0  0  0  0  0  0  0  0  0  0
    3.1780    0.7832   -0.9776 c   0  0  0  0  0  0  0  0  0  0  0  0
    4.2177    0.5477   -1.8777 c   0  0  0  0  0  0  0  0  0  0  0  0
    4.7970    1.4897   -2.5873 n   0  0  0  0  0  0  0  0  0  0  0  0
    4.4185    2.7551   -2.4588 c   0  0  0  0  0  0  0  0  0  0  0  0
    5.0973    3.5425   -3.3180 o   0  0  0  0  0  0  0  0  0  0  0  0
    4.7707    4.8943   -3.5349 c   0  0  0  0  0  0  0  0  0  0  0  0
    3.4138    3.1388   -1.5433 c   0  0  0  0  0  0  0  0  0  0  0  0
    2.9885    4.5172   -1.2617 c   0  0  0  0  0  0  0  0  0  0  0  0
    1.7180    4.8858   -1.1855 c   0  0  0  0  0  0  0  0  0  0  0  0
    2.7991    2.1165   -0.8297 c   0  0  0  0  0  0  0  0  0  0  0  0
    1.2767   -1.1120    1.1976 h   0  0  0  0  0  0  0  0  0  0  0  0
    1.2559    0.7060    1.0397 h   0  0  0  0  0  0  0  0  0  0  0  0
    2.9546   -1.2989   -0.5324 h   0  0  0  0  0  0  0  0  0  0  0  0
    4.6028   -0.4515   -2.0375 h   0  0  0  0  0  0  0  0  0  0  0  0
    5.1874    5.1398   -4.5125 h   0  0  0  0  0  0  0  0  0  0  0  0
    5.2348    5.5416   -2.7851 h   0  0  0  0  0  0  0  0  0  0  0  0
    3.6912    5.0604   -3.5487 h   0  0  0  0  0  0  0  0  0  0  0  0
    3.7711    5.2351   -1.0579 h   0  0  0  0  0  0  0  0  0  0  0  0
    0.9143    4.1978   -1.3906 h   0  0  0  0  0  0  0  0  0  0  0  0
    1.4347    5.8943   -0.9372 h   0  0  0  0  0  0  0  0  0  0  0  0
    2.0265    2.3868   -0.1255 h   0  0  0  0  0  0  0  0  0  0  0  0
  1  2  2  0  0  0  0
  2  3  1  0  0  0  0
  3  4  4  0  0  0  0
  4  5  4  0  0  0  0
  5  6  4  0  0  0  0
  6  7  1  0  0  0  0
  7  8  1  0  0  0  0
  6  9  4  0  0  0  0
  9 10  1  0  0  0  0
 10 11  2  0  0  0  0
  3 12  4  0  0  0  0
  9 12  4  0  0  0  0
  1 13  1  0  0  0  0
  1 14  1  0  0  0  0
  2 15  1  0  0  0  0
  4 16  1  0  0  0  0
  8 17  1  0  0  0  0
  8 18  1  0  0  0  0
  8 19  1  0  0  0  0
 10 20  1  0  0  0  0
 11 21  1  0  0  0  0
 11 22  1  0  0  0  0
 12 23  1  0  0  0  0
M  END
