
  xtb     02032210443D
 xtb: 6.4.1 (23d549d)
 37 40  0     0  0            999 V2000
    2.1183   -5.3139    0.6173 f   0  0  0  0  0  0  0  0  0  0  0  0
    3.2866   -4.7242    0.3783 c   0  0  0  0  0  0  0  0  0  0  0  0
    4.1450   -5.6338   -0.0624 f   0  0  0  0  0  0  0  0  0  0  0  0
    3.4950   -3.4296    0.5699 c   0  0  0  0  0  0  0  0  0  0  0  0
    4.7122   -2.6665    0.3455 c   0  0  0  0  0  0  0  0  0  0  0  0
    4.6928   -1.3008    0.6401 c   0  0  0  0  0  0  0  0  0  0  0  0
    5.8096   -0.5151    0.4407 c   0  0  0  0  0  0  0  0  0  0  0  0
    6.9744   -1.0808   -0.0618 c   0  0  0  0  0  0  0  0  0  0  0  0
    8.1143   -0.2571   -0.2845 n   0  0  0  0  0  0  0  0  0  0  0  0
    9.1343   -0.2850    0.6637 c   0  0  0  0  0  0  0  0  0  0  0  0
   10.2576    0.5432    0.5896 c   0  0  0  0  0  0  0  0  0  0  0  0
   10.4590    1.7753   -0.6666 s   0  0  0  0  0  0  0  0  0  0  0  0
    9.2040    1.3078   -1.8249 c   0  0  0  0  0  0  0  0  0  0  0  0
    8.1956    0.3919   -1.5150 c   0  0  0  0  0  0  0  0  0  0  0  0
    7.2409    0.1319   -2.5001 c   0  0  0  0  0  0  0  0  0  0  0  0
    7.2819    0.7606   -3.7319 c   0  0  0  0  0  0  0  0  0  0  0  0
    8.2896    1.6596   -4.0240 c   0  0  0  0  0  0  0  0  0  0  0  0
    9.2511    1.9233   -3.0647 c   0  0  0  0  0  0  0  0  0  0  0  0
   11.2603    0.4707    1.5421 c   0  0  0  0  0  0  0  0  0  0  0  0
   11.1639   -0.4069    2.6074 c   0  0  0  0  0  0  0  0  0  0  0  0
   10.0456   -1.2113    2.7121 c   0  0  0  0  0  0  0  0  0  0  0  0
    9.0493   -1.1529    1.7537 c   0  0  0  0  0  0  0  0  0  0  0  0
    7.0082   -2.4397   -0.3556 c   0  0  0  0  0  0  0  0  0  0  0  0
    5.8912   -3.2253   -0.1538 c   0  0  0  0  0  0  0  0  0  0  0  0
    2.6429   -2.8782    0.9402 h   0  0  0  0  0  0  0  0  0  0  0  0
    3.7905   -0.8534    1.0295 h   0  0  0  0  0  0  0  0  0  0  0  0
    5.7864    0.5405    0.6664 h   0  0  0  0  0  0  0  0  0  0  0  0
    6.4491   -0.5723   -2.2981 h   0  0  0  0  0  0  0  0  0  0  0  0
    6.5191    0.5368   -4.4621 h   0  0  0  0  0  0  0  0  0  0  0  0
    8.3316    2.1524   -4.9823 h   0  0  0  0  0  0  0  0  0  0  0  0
   10.0493    2.6229   -3.2610 h   0  0  0  0  0  0  0  0  0  0  0  0
   12.1125    1.1256    1.4419 h   0  0  0  0  0  0  0  0  0  0  0  0
   11.9485   -0.4496    3.3462 h   0  0  0  0  0  0  0  0  0  0  0  0
    9.9381   -1.8936    3.5415 h   0  0  0  0  0  0  0  0  0  0  0  0
    8.1837   -1.7879    1.8593 h   0  0  0  0  0  0  0  0  0  0  0  0
    7.9167   -2.8737   -0.7465 h   0  0  0  0  0  0  0  0  0  0  0  0
    5.9403   -4.2744   -0.3932 h   0  0  0  0  0  0  0  0  0  0  0  0
  1  2  1  0  0  0  0
  2  3  1  0  0  0  0
  2  4  2  0  0  0  0
  4  5  1  0  0  0  0
  5  6  4  0  0  0  0
  6  7  4  0  0  0  0
  7  8  4  0  0  0  0
  8  9  1  0  0  0  0
  9 10  1  0  0  0  0
 10 11  4  0  0  0  0
 11 12  1  0  0  0  0
 12 13  1  0  0  0  0
  9 14  1  0  0  0  0
 13 14  4  0  0  0  0
 14 15  4  0  0  0  0
 15 16  4  0  0  0  0
 16 17  4  0  0  0  0
 13 18  4  0  0  0  0
 17 18  4  0  0  0  0
 11 19  4  0  0  0  0
 19 20  4  0  0  0  0
 20 21  4  0  0  0  0
 10 22  4  0  0  0  0
 21 22  4  0  0  0  0
  8 23  4  0  0  0  0
  5 24  4  0  0  0  0
 23 24  4  0  0  0  0
  4 25  1  0  0  0  0
  6 26  1  0  0  0  0
  7 27  1  0  0  0  0
 15 28  1  0  0  0  0
 16 29  1  0  0  0  0
 17 30  1  0  0  0  0
 18 31  1  0  0  0  0
 19 32  1  0  0  0  0
 20 33  1  0  0  0  0
 21 34  1  0  0  0  0
 22 35  1  0  0  0  0
 23 36  1  0  0  0  0
 24 37  1  0  0  0  0
M  END
