
  xtb     02012213483D
 xtb: 6.4.1 (23d549d)
 18 18  0     0  0            999 V2000
    0.9415    0.0350    0.0684 c   0  0  0  0  0  0  0  0  0  0  0  0
    2.4313    0.0273   -0.0892 c   0  0  0  0  0  0  0  0  0  0  0  0
    3.1622    1.2042   -0.1621 c   0  0  0  0  0  0  0  0  0  0  0  0
    4.5391    1.1825   -0.3079 c   0  0  0  0  0  0  0  0  0  0  0  0
    5.2390   -0.0123   -0.3866 c   0  0  0  0  0  0  0  0  0  0  0  0
    6.7260   -0.0722   -0.5445 c   0  0  0  0  0  0  0  0  0  0  0  0
    4.4866   -1.1798   -0.3112 c   0  0  0  0  0  0  0  0  0  0  0  0
    5.1279   -2.3716   -0.3835 f   0  0  0  0  0  0  0  0  0  0  0  0
    3.1158   -1.1809   -0.1661 c   0  0  0  0  0  0  0  0  0  0  0  0
    0.5603    1.0518    0.1117 h   0  0  0  0  0  0  0  0  0  0  0  0
    0.6547   -0.4841    0.9821 h   0  0  0  0  0  0  0  0  0  0  0  0
    0.4696   -0.4792   -0.7679 h   0  0  0  0  0  0  0  0  0  0  0  0
    2.6502    2.1537   -0.1043 h   0  0  0  0  0  0  0  0  0  0  0  0
    5.0848    2.1135   -0.3622 h   0  0  0  0  0  0  0  0  0  0  0  0
    7.1507    0.9271   -0.5848 h   0  0  0  0  0  0  0  0  0  0  0  0
    6.9864   -0.6060   -1.4580 h   0  0  0  0  0  0  0  0  0  0  0  0
    7.1717   -0.6144    0.2890 h   0  0  0  0  0  0  0  0  0  0  0  0
    2.5897   -2.1219   -0.1139 h   0  0  0  0  0  0  0  0  0  0  0  0
  1  2  1  0  0  0  0
  2  3  4  0  0  0  0
  3  4  4  0  0  0  0
  4  5  4  0  0  0  0
  5  6  1  0  0  0  0
  5  7  4  0  0  0  0
  7  8  1  0  0  0  0
  2  9  4  0  0  0  0
  7  9  4  0  0  0  0
  1 10  1  0  0  0  0
  1 11  1  0  0  0  0
  1 12  1  0  0  0  0
  3 13  1  0  0  0  0
  4 14  1  0  0  0  0
  6 15  1  0  0  0  0
  6 16  1  0  0  0  0
  6 17  1  0  0  0  0
  9 18  1  0  0  0  0
M  END
