
 OpenBabel02032211243D

 19 19  0  0  0  0  0  0  0  0999 V2000
    2.5583    0.7295    1.1266 C   0  0  0  0  0  0  0  0  0  0  0  0
    2.3051   -0.0592    0.0776 C   0  0  0  0  0  0  0  0  0  0  0  0
    3.0682   -1.3028   -0.1668 C   0  0  0  0  0  0  0  0  0  0  0  0
    4.0603   -1.7479    0.6293 N   0  0  0  0  0  0  0  0  0  0  0  0
    4.5067   -2.8772    0.1029 N   0  0  0  0  0  0  0  0  0  0  0  0
    3.8408   -3.1757   -1.0023 N   0  0  0  0  0  0  0  0  0  0  0  0
    4.1337   -4.3729   -1.7811 C   0  0  0  0  0  0  0  0  0  0  0  0
    2.9171   -2.2035   -1.2121 C   0  0  0  0  0  0  0  0  0  0  0  0
    1.9193   -2.0733   -2.3163 C   0  0  0  0  0  0  0  0  0  0  0  0
    1.7566   -2.9126   -3.3454 C   0  0  0  0  0  0  0  0  0  0  0  0
    1.9789    1.6351    1.2747 H   0  0  0  0  0  0  0  0  0  0  0  0
    3.3372    0.4876    1.8431 H   0  0  0  0  0  0  0  0  0  0  0  0
    1.5157    0.2356   -0.6041 H   0  0  0  0  0  0  0  0  0  0  0  0
    4.9579   -4.9456   -1.3047 H   0  0  0  0  0  0  0  0  0  0  0  0
    4.4628   -4.0898   -2.8024 H   0  0  0  0  0  0  0  0  0  0  0  0
    3.2393   -5.0291   -1.8181 H   0  0  0  0  0  0  0  0  0  0  0  0
    1.2552   -1.2171   -2.2942 H   0  0  0  0  0  0  0  0  0  0  0  0
    2.3428   -3.8008   -3.4996 H   0  0  0  0  0  0  0  0  0  0  0  0
    0.9902   -2.7003   -4.0843 H   0  0  0  0  0  0  0  0  0  0  0  0
  1  2  2  0  0  0  0
  1 11  1  0  0  0  0
  1 12  1  0  0  0  0
  2  3  1  0  0  0  0
  2 13  1  0  0  0  0
  3  4  1  0  0  0  0
  3  8  2  0  0  0  0
  4  5  2  0  0  0  0
  5  6  1  0  0  0  0
  6  7  1  0  0  0  0
  6  8  1  0  0  0  0
  7 14  1  0  0  0  0
  7 15  1  0  0  0  0
  7 16  1  0  0  0  0
  8  9  1  0  0  0  0
  9 10  2  0  0  0  0
  9 17  1  0  0  0  0
 10 18  1  0  0  0  0
 10 19  1  0  0  0  0
M  END
