
  xtb     02032211243D
 xtb: 6.4.1 (23d549d)
 19 19  0     0  0            999 V2000
    1.8531    0.7357   -0.5472 c   0  0  0  0  0  0  0  0  0  0  0  0
    2.9138    0.1369   -0.0220 c   0  0  0  0  0  0  0  0  0  0  0  0
    3.3383   -1.2209   -0.2850 c   0  0  0  0  0  0  0  0  0  0  0  0
    4.0676   -1.8795    0.6467 n   0  0  0  0  0  0  0  0  0  0  0  0
    4.2785   -3.0785    0.2663 n   0  0  0  0  0  0  0  0  0  0  0  0
    3.7043   -3.2630   -0.9159 n   0  0  0  0  0  0  0  0  0  0  0  0
    3.7980   -4.5217   -1.5920 c   0  0  0  0  0  0  0  0  0  0  0  0
    3.0974   -2.1167   -1.3336 c   0  0  0  0  0  0  0  0  0  0  0  0
    2.4564   -2.0299   -2.6252 c   0  0  0  0  0  0  0  0  0  0  0  0
    2.4213   -0.9386   -3.3794 c   0  0  0  0  0  0  0  0  0  0  0  0
    1.5840    1.7395   -0.2667 h   0  0  0  0  0  0  0  0  0  0  0  0
    1.2114    0.2473   -1.2612 h   0  0  0  0  0  0  0  0  0  0  0  0
    3.5166    0.6338    0.7264 h   0  0  0  0  0  0  0  0  0  0  0  0
    4.4215   -5.1714   -0.9809 h   0  0  0  0  0  0  0  0  0  0  0  0
    4.2531   -4.3963   -2.5760 h   0  0  0  0  0  0  0  0  0  0  0  0
    2.8103   -4.9732   -1.7072 h   0  0  0  0  0  0  0  0  0  0  0  0
    2.0178   -2.9534   -2.9857 h   0  0  0  0  0  0  0  0  0  0  0  0
    2.8757   -0.0155   -3.0618 h   0  0  0  0  0  0  0  0  0  0  0  0
    1.9405   -0.9385   -4.3420 h   0  0  0  0  0  0  0  0  0  0  0  0
  1  2  2  0  0  0  0
  2  3  1  0  0  0  0
  3  4  4  0  0  0  0
  4  5  4  0  0  0  0
  5  6  4  0  0  0  0
  6  7  1  0  0  0  0
  3  8  4  0  0  0  0
  6  8  4  0  0  0  0
  8  9  1  0  0  0  0
  9 10  2  0  0  0  0
  1 11  1  0  0  0  0
  1 12  1  0  0  0  0
  2 13  1  0  0  0  0
  7 14  1  0  0  0  0
  7 15  1  0  0  0  0
  7 16  1  0  0  0  0
  9 17  1  0  0  0  0
 10 18  1  0  0  0  0
 10 19  1  0  0  0  0
M  END
