
  xtb     02032211353D
 xtb: 6.4.1 (23d549d)
 19 19  0     0  0            999 V2000
    3.7454    0.5976   -0.0055 C   0  0  0  0  0  0  0  0  0  0  0  0
    2.8337   -0.3682   -0.0008 C   0  0  0  0  0  0  0  0  0  0  0  0
    1.3900   -0.1949    0.0011 C   0  0  0  0  0  0  0  0  0  0  0  0
    0.5528   -1.3149    0.0021 C   0  0  0  0  0  0  0  0  0  0  0  0
   -0.8165   -1.1550    0.0025 C   0  0  0  0  0  0  0  0  0  0  0  0
   -1.3482    0.1382    0.0019 C   0  0  0  0  0  0  0  0  0  0  0  0
   -2.7741    0.4371    0.0009 C   0  0  0  0  0  0  0  0  0  0  0  0
   -3.7670   -0.4443   -0.0054 C   0  0  0  0  0  0  0  0  0  0  0  0
   -0.5517    1.2106    0.0023 N   0  0  0  0  0  0  0  0  0  0  0  0
    0.7514    1.0504    0.0020 C   0  0  0  0  0  0  0  0  0  0  0  0
    4.7979    0.3714   -0.0070 H   0  0  0  0  0  0  0  0  0  0  0  0
    3.4867    1.6423   -0.0081 H   0  0  0  0  0  0  0  0  0  0  0  0
    3.1607   -1.4018    0.0012 H   0  0  0  0  0  0  0  0  0  0  0  0
    0.9853   -2.3069    0.0021 H   0  0  0  0  0  0  0  0  0  0  0  0
   -1.4650   -2.0167    0.0034 H   0  0  0  0  0  0  0  0  0  0  0  0
   -2.9858    1.4978    0.0051 H   0  0  0  0  0  0  0  0  0  0  0  0
   -3.6044   -1.5089   -0.0105 H   0  0  0  0  0  0  0  0  0  0  0  0
   -4.7956   -0.1266   -0.0061 H   0  0  0  0  0  0  0  0  0  0  0  0
    1.3224    1.9693    0.0027 H   0  0  0  0  0  0  0  0  0  0  0  0
  1  2  2  0  0  0  0
  2  3  1  0  0  0  0
  3  4  4  0  0  0  0
  4  5  4  0  0  0  0
  5  6  4  0  0  0  0
  6  7  1  0  0  0  0
  7  8  2  0  0  0  0
  6  9  4  0  0  0  0
  3 10  4  0  0  0  0
  9 10  4  0  0  0  0
  1 11  1  0  0  0  0
  1 12  1  0  0  0  0
  2 13  1  0  0  0  0
  4 14  1  0  0  0  0
  5 15  1  0  0  0  0
  7 16  1  0  0  0  0
  8 17  1  0  0  0  0
  8 18  1  0  0  0  0
 10 19  1  0  0  0  0
M  END
