
 OpenBabel02012213523D

 21 21  0  0  0  0  0  0  0  0999 V2000
   -2.4177    1.1327    0.0111 C   0  0  0  0  0  0  0  0  0  0  0  0
   -1.1638    0.3121    0.0080 C   0  0  0  0  0  0  0  0  0  0  0  0
   -1.2128   -1.0798   -0.0070 C   0  0  0  0  0  0  0  0  0  0  0  0
   -0.0186   -1.8034   -0.0203 C   0  0  0  0  0  0  0  0  0  0  0  0
   -0.0188   -3.3059   -0.0070 C   0  0  0  0  0  0  0  0  0  0  0  0
    0.6472   -3.8137   -1.1543 O   0  0  0  0  0  0  0  0  0  0  0  0
    1.1887   -1.0958   -0.0147 C   0  0  0  0  0  0  0  0  0  0  0  0
    1.1595    0.2944    0.0064 C   0  0  0  0  0  0  0  0  0  0  0  0
    2.4237    1.0948    0.0288 C   0  0  0  0  0  0  0  0  0  0  0  0
    0.0021    0.9972    0.0165 N   0  0  0  0  0  0  0  0  0  0  0  0
   -3.3149    0.5065    0.0262 H   0  0  0  0  0  0  0  0  0  0  0  0
   -2.4517    1.7579   -0.8868 H   0  0  0  0  0  0  0  0  0  0  0  0
   -2.4387    1.7803    0.8938 H   0  0  0  0  0  0  0  0  0  0  0  0
   -2.1711   -1.5892   -0.0046 H   0  0  0  0  0  0  0  0  0  0  0  0
   -1.0363   -3.7098    0.0004 H   0  0  0  0  0  0  0  0  0  0  0  0
    0.4936   -3.6734    0.8892 H   0  0  0  0  0  0  0  0  0  0  0  0
    0.1944   -3.4399   -1.9301 H   0  0  0  0  0  0  0  0  0  0  0  0
    2.1317   -1.6296   -0.0208 H   0  0  0  0  0  0  0  0  0  0  0  0
    3.3124    0.4561    0.0297 H   0  0  0  0  0  0  0  0  0  0  0  0
    2.4538    1.7195    0.9285 H   0  0  0  0  0  0  0  0  0  0  0  0
    2.4693    1.7434   -0.8517 H   0  0  0  0  0  0  0  0  0  0  0  0
  1  2  1  0  0  0  0
  1 11  1  0  0  0  0
  1 12  1  0  0  0  0
  1 13  1  0  0  0  0
  2  3  1  0  0  0  0
  2 10  2  0  0  0  0
  3  4  2  0  0  0  0
  3 14  1  0  0  0  0
  4  5  1  0  0  0  0
  4  7  1  0  0  0  0
  5  6  1  0  0  0  0
  5 15  1  0  0  0  0
  5 16  1  0  0  0  0
  6 17  1  0  0  0  0
  7  8  2  0  0  0  0
  7 18  1  0  0  0  0
  8  9  1  0  0  0  0
  8 10  1  0  0  0  0
  9 19  1  0  0  0  0
  9 20  1  0  0  0  0
  9 21  1  0  0  0  0
M  END
