17

C          1.07786       -0.57910       -0.34235
C          2.13280        0.11530        0.10520
C          3.05760        0.88950       -0.77270
C          2.83710        2.25250       -1.08420
C          3.82740        2.83310       -1.85670
S          4.99250        1.67770       -2.16460
C          4.25820        0.40390       -1.34610
C          4.90550       -0.93600       -1.35190
C          4.81999       -1.87726       -0.40577
H          0.44448       -1.10465        0.36562
H          0.82203       -0.65166       -1.39099
H          2.26956        0.11129        1.17105
H          1.99030        2.83140       -0.74760
H          3.84820        3.86190       -2.19010
H          5.47271       -1.19511       -2.24137
H          4.23849       -1.78123        0.49154
H          5.33114       -2.82365       -0.55503
17

C          1.07786       -0.57910       -0.34235
C          2.13280        0.11530        0.10520
C          3.05760        0.88950       -0.77270
C          2.83710        2.25250       -1.08420
C          3.82740        2.83310       -1.85670
S          4.99250        1.67770       -2.16460
C          4.25820        0.40390       -1.34610
C          4.90550       -0.93600       -1.35190
C          4.29792       -2.12566       -1.28855
H          0.44448       -1.10465        0.36562
H          0.82203       -0.65166       -1.39099
H          2.26956        0.11129        1.17105
H          1.99030        2.83140       -0.74760
H          3.84820        3.86190       -2.19010
H          5.98581       -0.95059       -1.46480
H          3.23363       -2.25917       -1.24398
H          4.90015       -3.02852       -1.32505
17

C          2.26445        0.01910        1.43516
C          2.13280        0.11530        0.10520
C          3.05760        0.88950       -0.77270
C          2.83710        2.25250       -1.08420
C          3.82740        2.83310       -1.85670
S          4.99250        1.67770       -2.16460
C          4.25820        0.40390       -1.34610
C          4.90550       -0.93600       -1.35190
C          5.78904       -1.40886       -0.46634
H          1.55550       -0.57767        2.00073
H          3.04929        0.51862        1.98730
H          1.31411       -0.43676       -0.31875
H          1.99030        2.83140       -0.74760
H          3.84820        3.86190       -2.19010
H          4.59284       -1.62063       -2.13520
H          6.13265       -0.86575        0.39360
H          6.16398       -2.42118       -0.58388
17

C          1.07786       -0.57910       -0.34235
C          2.13280        0.11530        0.10520
C          3.05760        0.88950       -0.77270
C          2.83710        2.25250       -1.08420
C          3.82740        2.83310       -1.85670
S          4.99250        1.67770       -2.16460
C          4.25820        0.40390       -1.34610
C          4.90550       -0.93600       -1.35190
C          4.73362       -1.91100       -2.25095
H          0.44448       -1.10465        0.36562
H          0.82203       -0.65166       -1.39099
H          2.26956        0.11129        1.17105
H          1.99030        2.83140       -0.74760
H          3.84820        3.86190       -2.19010
H          5.63011       -1.12632       -0.56529
H          4.10124       -1.83193       -3.11487
H          5.29272       -2.83534       -2.14053
17

C          1.07786       -0.57910       -0.34235
C          2.13280        0.11530        0.10520
C          3.05760        0.88950       -0.77270
C          2.83710        2.25250       -1.08420
C          3.82740        2.83310       -1.85670
S          4.99250        1.67770       -2.16460
C          4.25820        0.40390       -1.34610
C          4.90550       -0.93600       -1.35190
C          5.78904       -1.40886       -0.46634
H          0.44448       -1.10465        0.36562
H          0.82203       -0.65166       -1.39099
H          2.26956        0.11129        1.17105
H          1.99030        2.83140       -0.74760
H          3.84820        3.86190       -2.19010
H          4.59284       -1.62063       -2.13520
H          6.13265       -0.86575        0.39360
H          6.16398       -2.42118       -0.58388
17

C          2.26445        0.01910        1.43516
C          2.13280        0.11530        0.10520
C          3.05760        0.88950       -0.77270
C          2.83710        2.25250       -1.08420
C          3.82740        2.83310       -1.85670
S          4.99250        1.67770       -2.16460
C          4.25820        0.40390       -1.34610
C          4.90550       -0.93600       -1.35190
C          4.73362       -1.91100       -2.25095
H          1.55550       -0.57767        2.00073
H          3.04929        0.51862        1.98730
H          1.31411       -0.43676       -0.31875
H          1.99030        2.83140       -0.74760
H          3.84820        3.86190       -2.19010
H          5.63011       -1.12632       -0.56529
H          4.10124       -1.83193       -3.11487
H          5.29272       -2.83534       -2.14053
17

C          2.31177       -1.17085        0.43563
C          2.13280        0.11530        0.10520
C          3.05760        0.88950       -0.77270
C          2.83710        2.25250       -1.08420
C          3.82740        2.83310       -1.85670
S          4.99250        1.67770       -2.16460
C          4.25820        0.40390       -1.34610
C          4.90550       -0.93600       -1.35190
C          4.81999       -1.87726       -0.40577
H          1.58260       -1.66648        1.06907
H          3.16278       -1.75126        0.10510
H          1.24150        0.57220        0.49454
H          1.99030        2.83140       -0.74760
H          3.84820        3.86190       -2.19010
H          5.47271       -1.19511       -2.24137
H          4.23849       -1.78123        0.49154
H          5.33114       -2.82365       -0.55503
17

C          1.91734       -1.20236       -0.00766
C          2.13280        0.11530        0.10520
C          3.05760        0.88950       -0.77270
C          2.83710        2.25250       -1.08420
C          3.82740        2.83310       -1.85670
S          4.99250        1.67770       -2.16460
C          4.25820        0.40390       -1.34610
C          4.90550       -0.93600       -1.35190
C          5.78904       -1.40886       -0.46634
H          1.21566       -1.68865        0.66298
H          2.41903       -1.82092       -0.73981
H          1.56385        0.61227        0.86945
H          1.99030        2.83140       -0.74760
H          3.84820        3.86190       -2.19010
H          4.59284       -1.62063       -2.13520
H          6.13265       -0.86575        0.39360
H          6.16398       -2.42118       -0.58388
17

C          1.91734       -1.20236       -0.00766
C          2.13280        0.11530        0.10520
C          3.05760        0.88950       -0.77270
C          2.83710        2.25250       -1.08420
C          3.82740        2.83310       -1.85670
S          4.99250        1.67770       -2.16460
C          4.25820        0.40390       -1.34610
C          4.90550       -0.93600       -1.35190
C          4.73362       -1.91100       -2.25095
H          1.21566       -1.68865        0.66298
H          2.41903       -1.82092       -0.73981
H          1.56385        0.61227        0.86945
H          1.99030        2.83140       -0.74760
H          3.84820        3.86190       -2.19010
H          5.63011       -1.12632       -0.56529
H          4.10124       -1.83193       -3.11487
H          5.29272       -2.83534       -2.14053
17

C          2.31177       -1.17085        0.43563
C          2.13280        0.11530        0.10520
C          3.05760        0.88950       -0.77270
C          2.83710        2.25250       -1.08420
C          3.82740        2.83310       -1.85670
S          4.99250        1.67770       -2.16460
C          4.25820        0.40390       -1.34610
C          4.90550       -0.93600       -1.35190
C          4.29792       -2.12566       -1.28855
H          1.58260       -1.66648        1.06907
H          3.16278       -1.75126        0.10510
H          1.24150        0.57220        0.49454
H          1.99030        2.83140       -0.74760
H          3.84820        3.86190       -2.19010
H          5.98581       -0.95059       -1.46480
H          3.23363       -2.25917       -1.24398
H          4.90015       -3.02852       -1.32505
