
 OpenBabel02032211103D

 17 17  0  0  0  0  0  0  0  0999 V2000
    0.9433    0.5663    0.5260 C   0  0  0  0  0  0  0  0  0  0  0  0
    2.1328    0.1153    0.1052 C   0  0  0  0  0  0  0  0  0  0  0  0
    3.0576    0.8895   -0.7727 C   0  0  0  0  0  0  0  0  0  0  0  0
    2.8371    2.2525   -1.0842 C   0  0  0  0  0  0  0  0  0  0  0  0
    3.8274    2.8331   -1.8567 C   0  0  0  0  0  0  0  0  0  0  0  0
    4.9925    1.6777   -2.1646 S   0  0  0  0  0  0  0  0  0  0  0  0
    4.2582    0.4039   -1.3461 C   0  0  0  0  0  0  0  0  0  0  0  0
    4.9055   -0.9360   -1.3519 C   0  0  0  0  0  0  0  0  0  0  0  0
    4.3396   -2.1066   -1.0390 C   0  0  0  0  0  0  0  0  0  0  0  0
    0.3357   -0.0551    1.1766 H   0  0  0  0  0  0  0  0  0  0  0  0
    0.5448    1.5311    0.2419 H   0  0  0  0  0  0  0  0  0  0  0  0
    2.4124   -0.8569    0.4677 H   0  0  0  0  0  0  0  0  0  0  0  0
    1.9903    2.8314   -0.7476 H   0  0  0  0  0  0  0  0  0  0  0  0
    3.8482    3.8619   -2.1901 H   0  0  0  0  0  0  0  0  0  0  0  0
    5.9372   -0.9731   -1.6899 H   0  0  0  0  0  0  0  0  0  0  0  0
    3.3108   -2.2240   -0.7556 H   0  0  0  0  0  0  0  0  0  0  0  0
    4.9311   -3.0145   -1.1099 H   0  0  0  0  0  0  0  0  0  0  0  0
  1  2  2  0  0  0  0
  1 10  1  0  0  0  0
  1 11  1  0  0  0  0
  2  3  1  0  0  0  0
  2 12  1  0  0  0  0
  3  4  1  0  0  0  0
  3  7  2  0  0  0  0
  4  5  2  0  0  0  0
  4 13  1  0  0  0  0
  5  6  1  0  0  0  0
  5 14  1  0  0  0  0
  6  7  1  0  0  0  0
  7  8  1  0  0  0  0
  8  9  2  0  0  0  0
  8 15  1  0  0  0  0
  9 16  1  0  0  0  0
  9 17  1  0  0  0  0
M  END
