
 OpenBabel02012213503D

 16 16  0  0  0  0  0  0  0  0999 V2000
    1.0144   -0.0821   -0.0734 C   0  0  0  0  0  0  0  0  0  0  0  0
    2.5029   -0.0549   -0.0719 C   0  0  0  0  0  0  0  0  0  0  0  0
    3.2227    1.1192   -0.0683 C   0  0  0  0  0  0  0  0  0  0  0  0
    4.5669    1.1789   -0.0648 N   0  0  0  0  0  0  0  0  0  0  0  0
    5.2183    0.0014   -0.0651 C   0  0  0  0  0  0  0  0  0  0  0  0
    6.7142    0.0427   -0.0590 C   0  0  0  0  0  0  0  0  0  0  0  0
    4.6184   -1.2042   -0.0693 N   0  0  0  0  0  0  0  0  0  0  0  0
    3.2693   -1.2022   -0.0728 C   0  0  0  0  0  0  0  0  0  0  0  0
    0.5993    0.9319   -0.0718 H   0  0  0  0  0  0  0  0  0  0  0  0
    0.6405   -0.5953    0.8180 H   0  0  0  0  0  0  0  0  0  0  0  0
    0.6416   -0.5923   -0.9670 H   0  0  0  0  0  0  0  0  0  0  0  0
    2.7280    2.0868   -0.0679 H   0  0  0  0  0  0  0  0  0  0  0  0
    7.0727    1.0772   -0.0588 H   0  0  0  0  0  0  0  0  0  0  0  0
    7.1089   -0.4575   -0.9480 H   0  0  0  0  0  0  0  0  0  0  0  0
    7.1016   -0.4553    0.8345 H   0  0  0  0  0  0  0  0  0  0  0  0
    2.8119   -2.1880   -0.0759 H   0  0  0  0  0  0  0  0  0  0  0  0
  1  2  1  0  0  0  0
  1  9  1  0  0  0  0
  1 10  1  0  0  0  0
  1 11  1  0  0  0  0
  2  3  1  0  0  0  0
  2  8  2  0  0  0  0
  3  4  2  0  0  0  0
  3 12  1  0  0  0  0
  4  5  1  0  0  0  0
  5  6  1  0  0  0  0
  5  7  2  0  0  0  0
  6 13  1  0  0  0  0
  6 14  1  0  0  0  0
  6 15  1  0  0  0  0
  7  8  1  0  0  0  0
  8 16  1  0  0  0  0
M  END
