
 OpenBabel02012213453D

 18 18  0  0  0  0  0  0  0  0999 V2000
    2.5232    1.0752    0.0089 C   0  0  0  0  0  0  0  0  0  0  0  0
    1.2158    0.3392    0.0014 C   0  0  0  0  0  0  0  0  0  0  0  0
   -0.0043    1.0295   -0.0027 C   0  0  0  0  0  0  0  0  0  0  0  0
   -1.2212    0.3336   -0.0039 C   0  0  0  0  0  0  0  0  0  0  0  0
   -2.5325    1.0621   -0.0065 C   0  0  0  0  0  0  0  0  0  0  0  0
   -1.2067   -1.0663   -0.0038 C   0  0  0  0  0  0  0  0  0  0  0  0
    0.0025   -1.7596   -0.0003 C   0  0  0  0  0  0  0  0  0  0  0  0
    1.2085   -1.0606    0.0031 C   0  0  0  0  0  0  0  0  0  0  0  0
    2.3761    2.1599   -0.0081 H   0  0  0  0  0  0  0  0  0  0  0  0
    3.1141    0.8029   -0.8717 H   0  0  0  0  0  0  0  0  0  0  0  0
    3.0895    0.8266    0.9123 H   0  0  0  0  0  0  0  0  0  0  0  0
   -0.0069    2.1177   -0.0045 H   0  0  0  0  0  0  0  0  0  0  0  0
   -2.3920    2.1476    0.0098 H   0  0  0  0  0  0  0  0  0  0  0  0
   -3.1175    0.7861    0.8770 H   0  0  0  0  0  0  0  0  0  0  0  0
   -3.1015    0.8092   -0.9071 H   0  0  0  0  0  0  0  0  0  0  0  0
   -2.1409   -1.6229   -0.0055 H   0  0  0  0  0  0  0  0  0  0  0  0
    0.0047   -2.8466    0.0007 H   0  0  0  0  0  0  0  0  0  0  0  0
    2.1452   -1.6132    0.0076 H   0  0  0  0  0  0  0  0  0  0  0  0
  1  2  1  0  0  0  0
  1  9  1  0  0  0  0
  1 10  1  0  0  0  0
  1 11  1  0  0  0  0
  2  3  1  0  0  0  0
  2  8  2  0  0  0  0
  3  4  2  0  0  0  0
  3 12  1  0  0  0  0
  4  5  1  0  0  0  0
  4  6  1  0  0  0  0
  5 13  1  0  0  0  0
  5 14  1  0  0  0  0
  5 15  1  0  0  0  0
  6  7  2  0  0  0  0
  6 16  1  0  0  0  0
  7  8  1  0  0  0  0
  7 17  1  0  0  0  0
  8 18  1  0  0  0  0
M  END
