
  xtb     02032211363D
 xtb: 6.4.1 (23d549d)
 41 43  0     0  0            999 V2000
    5.1980   -2.0070   -0.9052 C   0  0  0  0  0  0  0  0  0  0  0  0
    4.0300   -2.0494   -0.2769 C   0  0  0  0  0  0  0  0  0  0  0  0
    3.1220   -0.9293   -0.0472 C   0  0  0  0  0  0  0  0  0  0  0  0
    3.4966    0.3936   -0.2645 C   0  0  0  0  0  0  0  0  0  0  0  0
    2.5982    1.4255   -0.0205 C   0  0  0  0  0  0  0  0  0  0  0  0
    2.9448    2.8299   -0.2191 C   0  0  0  0  0  0  0  0  0  0  0  0
    4.1593    3.3253   -0.4204 C   0  0  0  0  0  0  0  0  0  0  0  0
    1.3094    1.1217    0.4167 C   0  0  0  0  0  0  0  0  0  0  0  0
    0.9017   -0.1934    0.6446 C   0  0  0  0  0  0  0  0  0  0  0  0
   -0.3500   -0.5144    1.1599 N   0  0  0  0  0  0  0  0  0  0  0  0
   -1.0763   -1.6460    0.6270 C   0  0  0  0  0  0  0  0  0  0  0  0
   -1.8919   -1.2468   -0.6089 C   0  0  0  0  0  0  0  0  0  0  0  0
   -2.8701   -0.1175   -0.2552 C   0  0  0  0  0  0  0  0  0  0  0  0
   -2.1032    1.0503    0.3805 C   0  0  0  0  0  0  0  0  0  0  0  0
   -1.2675    0.5286    1.5548 C   0  0  0  0  0  0  0  0  0  0  0  0
   -3.8572   -0.6264    0.6324 O   0  0  0  0  0  0  0  0  0  0  0  0
   -5.1252   -0.2562    0.1444 C   0  0  0  0  0  0  0  0  0  0  0  0
   -4.8804   -0.1014   -1.3576 C   0  0  0  0  0  0  0  0  0  0  0  0
   -3.5487    0.3553   -1.4097 O   0  0  0  0  0  0  0  0  0  0  0  0
    1.8403   -1.2041    0.4189 C   0  0  0  0  0  0  0  0  0  0  0  0
    5.7988   -2.8915   -1.0323 H   0  0  0  0  0  0  0  0  0  0  0  0
    5.6010   -1.1013   -1.3247 H   0  0  0  0  0  0  0  0  0  0  0  0
    3.6760   -3.0007    0.1031 H   0  0  0  0  0  0  0  0  0  0  0  0
    4.4881    0.6185   -0.6186 H   0  0  0  0  0  0  0  0  0  0  0  0
    2.1042    3.5128   -0.1745 H   0  0  0  0  0  0  0  0  0  0  0  0
    5.0409    2.7087   -0.4554 H   0  0  0  0  0  0  0  0  0  0  0  0
    4.3193    4.3821   -0.5511 H   0  0  0  0  0  0  0  0  0  0  0  0
    0.6295    1.9434    0.5779 H   0  0  0  0  0  0  0  0  0  0  0  0
   -1.7618   -2.0054    1.4006 H   0  0  0  0  0  0  0  0  0  0  0  0
   -0.3938   -2.4516    0.3641 H   0  0  0  0  0  0  0  0  0  0  0  0
   -2.4546   -2.1037   -0.9810 H   0  0  0  0  0  0  0  0  0  0  0  0
   -1.2296   -0.8881   -1.3984 H   0  0  0  0  0  0  0  0  0  0  0  0
   -2.8149    1.8022    0.7237 H   0  0  0  0  0  0  0  0  0  0  0  0
   -1.4714    1.4909   -0.3907 H   0  0  0  0  0  0  0  0  0  0  0  0
   -1.9515    0.0930    2.2913 H   0  0  0  0  0  0  0  0  0  0  0  0
   -0.7210    1.3385    2.0387 H   0  0  0  0  0  0  0  0  0  0  0  0
   -5.4463    0.6956    0.5899 H   0  0  0  0  0  0  0  0  0  0  0  0
   -5.8363   -1.0422    0.3985 H   0  0  0  0  0  0  0  0  0  0  0  0
   -5.5185    0.6410   -1.8362 H   0  0  0  0  0  0  0  0  0  0  0  0
   -4.9775   -1.0663   -1.8741 H   0  0  0  0  0  0  0  0  0  0  0  0
    1.5812   -2.2328    0.6192 H   0  0  0  0  0  0  0  0  0  0  0  0
  1  2  2  0  0  0  0
  2  3  1  0  0  0  0
  3  4  4  0  0  0  0
  4  5  4  0  0  0  0
  5  6  1  0  0  0  0
  6  7  2  0  0  0  0
  5  8  4  0  0  0  0
  8  9  4  0  0  0  0
  9 10  1  0  0  0  0
 10 11  1  0  0  0  0
 11 12  1  0  0  0  0
 12 13  1  0  0  0  0
 13 14  1  0  0  0  0
 10 15  1  0  0  0  0
 14 15  1  0  0  0  0
 13 16  1  0  0  0  0
 16 17  1  0  0  0  0
 17 18  1  0  0  0  0
 13 19  1  0  0  0  0
 18 19  1  0  0  0  0
  3 20  4  0  0  0  0
  9 20  4  0  0  0  0
  1 21  1  0  0  0  0
  1 22  1  0  0  0  0
  2 23  1  0  0  0  0
  4 24  1  0  0  0  0
  6 25  1  0  0  0  0
  7 26  1  0  0  0  0
  7 27  1  0  0  0  0
  8 28  1  0  0  0  0
 11 29  1  0  0  0  0
 11 30  1  0  0  0  0
 12 31  1  0  0  0  0
 12 32  1  0  0  0  0
 14 33  1  0  0  0  0
 14 34  1  0  0  0  0
 15 35  1  0  0  0  0
 15 36  1  0  0  0  0
 17 37  1  0  0  0  0
 17 38  1  0  0  0  0
 18 39  1  0  0  0  0
 18 40  1  0  0  0  0
 20 41  1  0  0  0  0
M  END
