
  xtb     02032211353D
 xtb: 6.4.1 (23d549d)
 22 22  0     0  0            999 V2000
    3.8653   -1.7555    0.1387 C   0  0  0  0  0  0  0  0  0  0  0  0
    3.5140   -0.4795    0.0308 C   0  0  0  0  0  0  0  0  0  0  0  0
    2.1554    0.0407   -0.0254 C   0  0  0  0  0  0  0  0  0  0  0  0
    1.0106   -0.7619    0.0073 C   0  0  0  0  0  0  0  0  0  0  0  0
   -0.2330   -0.1581   -0.0420 C   0  0  0  0  0  0  0  0  0  0  0  0
   -1.4715   -1.0130    0.0170 C   0  0  0  0  0  0  0  0  0  0  0  0
   -1.1999   -2.3083    0.2301 F   0  0  0  0  0  0  0  0  0  0  0  0
   -2.3117   -0.6414    0.9987 F   0  0  0  0  0  0  0  0  0  0  0  0
   -2.1839   -0.9678   -1.1259 F   0  0  0  0  0  0  0  0  0  0  0  0
   -0.3396    1.2381   -0.1265 C   0  0  0  0  0  0  0  0  0  0  0  0
   -1.6193    1.9321   -0.1864 C   0  0  0  0  0  0  0  0  0  0  0  0
   -1.8231    3.1555    0.2862 C   0  0  0  0  0  0  0  0  0  0  0  0
    0.8771    1.9325   -0.1689 C   0  0  0  0  0  0  0  0  0  0  0  0
    2.0586    1.3682   -0.1170 N   0  0  0  0  0  0  0  0  0  0  0  0
    4.9010   -2.0457    0.1734 H   0  0  0  0  0  0  0  0  0  0  0  0
    3.1499   -2.5583    0.1976 H   0  0  0  0  0  0  0  0  0  0  0  0
    4.2670    0.2945   -0.0224 H   0  0  0  0  0  0  0  0  0  0  0  0
    1.0893   -1.8343    0.0755 H   0  0  0  0  0  0  0  0  0  0  0  0
   -2.4396    1.3921   -0.6386 H   0  0  0  0  0  0  0  0  0  0  0  0
   -1.0487    3.7183    0.7796 H   0  0  0  0  0  0  0  0  0  0  0  0
   -2.7875    3.6269    0.2159 H   0  0  0  0  0  0  0  0  0  0  0  0
    0.8800    3.0094   -0.2687 H   0  0  0  0  0  0  0  0  0  0  0  0
  1  2  2  0  0  0  0
  2  3  1  0  0  0  0
  3  4  4  0  0  0  0
  4  5  4  0  0  0  0
  5  6  1  0  0  0  0
  6  7  1  0  0  0  0
  6  8  1  0  0  0  0
  6  9  1  0  0  0  0
  5 10  4  0  0  0  0
 10 11  1  0  0  0  0
 11 12  2  0  0  0  0
 10 13  4  0  0  0  0
  3 14  4  0  0  0  0
 13 14  4  0  0  0  0
  1 15  1  0  0  0  0
  1 16  1  0  0  0  0
  2 17  1  0  0  0  0
  4 18  1  0  0  0  0
 11 19  1  0  0  0  0
 12 20  1  0  0  0  0
 12 21  1  0  0  0  0
 13 22  1  0  0  0  0
M  END
