
  xtb     02032211353D
 xtb: 6.4.1 (23d549d)
 29 29  0     0  0            999 V2000
    3.5227    1.1596   -0.7420 C   0  0  0  0  0  0  0  0  0  0  0  0
    2.3877    1.5280   -0.1637 C   0  0  0  0  0  0  0  0  0  0  0  0
    1.1988    0.7077   -0.0317 C   0  0  0  0  0  0  0  0  0  0  0  0
   -0.0928    1.2063   -0.0719 C   0  0  0  0  0  0  0  0  0  0  0  0
   -0.9384    0.1619   -0.0211 N   0  0  0  0  0  0  0  0  0  0  0  0
   -2.3939    0.1286   -0.0345 C   0  0  0  0  0  0  0  0  0  0  0  0
   -2.9634    1.5382   -0.1653 C   0  0  0  0  0  0  0  0  0  0  0  0
   -2.8259   -0.7335   -1.2245 C   0  0  0  0  0  0  0  0  0  0  0  0
   -2.8553   -0.5140    1.2773 C   0  0  0  0  0  0  0  0  0  0  0  0
   -0.2788   -0.9868    0.0648 N   0  0  0  0  0  0  0  0  0  0  0  0
    1.0180   -0.6998    0.0702 C   0  0  0  0  0  0  0  0  0  0  0  0
    1.9587   -1.7890    0.2475 C   0  0  0  0  0  0  0  0  0  0  0  0
    3.1572   -1.6961    0.8075 C   0  0  0  0  0  0  0  0  0  0  0  0
    4.3542    1.8380   -0.8320 H   0  0  0  0  0  0  0  0  0  0  0  0
    3.6590    0.1718   -1.1478 H   0  0  0  0  0  0  0  0  0  0  0  0
    2.2743    2.5431    0.2009 H   0  0  0  0  0  0  0  0  0  0  0  0
   -0.4213    2.2219   -0.1531 H   0  0  0  0  0  0  0  0  0  0  0  0
   -2.6320    2.0087   -1.0884 H   0  0  0  0  0  0  0  0  0  0  0  0
   -2.6684    2.1587    0.6779 H   0  0  0  0  0  0  0  0  0  0  0  0
   -4.0489    1.4831   -0.1827 H   0  0  0  0  0  0  0  0  0  0  0  0
   -2.5094   -0.2753   -2.1591 H   0  0  0  0  0  0  0  0  0  0  0  0
   -3.9064   -0.8456   -1.2373 H   0  0  0  0  0  0  0  0  0  0  0  0
   -2.3654   -1.7144   -1.1459 H   0  0  0  0  0  0  0  0  0  0  0  0
   -2.5571    0.0990    2.1253 H   0  0  0  0  0  0  0  0  0  0  0  0
   -2.3976   -1.4940    1.3805 H   0  0  0  0  0  0  0  0  0  0  0  0
   -3.9364   -0.6215    1.2857 H   0  0  0  0  0  0  0  0  0  0  0  0
    1.5688   -2.7517   -0.0573 H   0  0  0  0  0  0  0  0  0  0  0  0
    3.5526   -0.7588    1.1598 H   0  0  0  0  0  0  0  0  0  0  0  0
    3.7834   -2.5624    0.9381 H   0  0  0  0  0  0  0  0  0  0  0  0
  1  2  2  0  0  0  0
  2  3  1  0  0  0  0
  3  4  4  0  0  0  0
  4  5  4  0  0  0  0
  5  6  1  0  0  0  0
  6  7  1  0  0  0  0
  6  8  1  0  0  0  0
  6  9  1  0  0  0  0
  5 10  4  0  0  0  0
  3 11  4  0  0  0  0
 10 11  4  0  0  0  0
 11 12  1  0  0  0  0
 12 13  2  0  0  0  0
  1 14  1  0  0  0  0
  1 15  1  0  0  0  0
  2 16  1  0  0  0  0
  4 17  1  0  0  0  0
  7 18  1  0  0  0  0
  7 19  1  0  0  0  0
  7 20  1  0  0  0  0
  8 21  1  0  0  0  0
  8 22  1  0  0  0  0
  8 23  1  0  0  0  0
  9 24  1  0  0  0  0
  9 25  1  0  0  0  0
  9 26  1  0  0  0  0
 12 27  1  0  0  0  0
 13 28  1  0  0  0  0
 13 29  1  0  0  0  0
M  END
