
 OpenBabel02032211233D

 21 21  0  0  0  0  0  0  0  0999 V2000
    1.2187   -0.6050    0.6534 C   0  0  0  0  0  0  0  0  0  0  0  0
    2.2190    0.0072    0.0103 C   0  0  0  0  0  0  0  0  0  0  0  0
    2.9847    1.1242    0.6064 C   0  0  0  0  0  0  0  0  0  0  0  0
    4.0183    1.7288   -0.1119 C   0  0  0  0  0  0  0  0  0  0  0  0
    4.7382    2.7870    0.4581 C   0  0  0  0  0  0  0  0  0  0  0  0
    5.8503    3.4327   -0.3259 C   0  0  0  0  0  0  0  0  0  0  0  0
    4.3926    3.2156    1.7588 C   0  0  0  0  0  0  0  0  0  0  0  0
    5.1065    4.3317    2.4340 C   0  0  0  0  0  0  0  0  0  0  0  0
    4.7888    4.7479    3.6654 C   0  0  0  0  0  0  0  0  0  0  0  0
    3.3747    2.5841    2.4071 N   0  0  0  0  0  0  0  0  0  0  0  0
    2.6967    1.5785    1.8542 N   0  0  0  0  0  0  0  0  0  0  0  0
    0.6868   -1.4198    0.1729 H   0  0  0  0  0  0  0  0  0  0  0  0
    0.9184   -0.3082    1.6533 H   0  0  0  0  0  0  0  0  0  0  0  0
    2.4745   -0.3334   -0.9893 H   0  0  0  0  0  0  0  0  0  0  0  0
    4.2594    1.3773   -1.1085 H   0  0  0  0  0  0  0  0  0  0  0  0
    5.9753    2.9634   -1.3250 H   0  0  0  0  0  0  0  0  0  0  0  0
    6.8087    3.3276    0.2247 H   0  0  0  0  0  0  0  0  0  0  0  0
    5.6265    4.5094   -0.4785 H   0  0  0  0  0  0  0  0  0  0  0  0
    5.9187    4.8423    1.9277 H   0  0  0  0  0  0  0  0  0  0  0  0
    3.9885    4.2874    4.2356 H   0  0  0  0  0  0  0  0  0  0  0  0
    5.3390    5.5674    4.1168 H   0  0  0  0  0  0  0  0  0  0  0  0
  1  2  2  0  0  0  0
  1 12  1  0  0  0  0
  1 13  1  0  0  0  0
  2  3  1  0  0  0  0
  2 14  1  0  0  0  0
  3  4  1  0  0  0  0
  3 11  2  0  0  0  0
  4  5  2  0  0  0  0
  4 15  1  0  0  0  0
  5  6  1  0  0  0  0
  5  7  1  0  0  0  0
  6 16  1  0  0  0  0
  6 17  1  0  0  0  0
  6 18  1  0  0  0  0
  7  8  1  0  0  0  0
  7 10  2  0  0  0  0
  8  9  2  0  0  0  0
  8 19  1  0  0  0  0
  9 20  1  0  0  0  0
  9 21  1  0  0  0  0
 10 11  1  0  0  0  0
M  END
