 xtb: 6.5.0 (unknown)
          08112218563D

 27  0  0     0  0            999 V2000
   -3.3197   -2.0741    1.0726 C   0  0  0  0  0  0  0  0  0  0  0  0
   -3.1317   -1.0019    0.3147 C   0  0  0  0  0  0  0  0  0  0  0  0
   -1.8924   -0.2350    0.2032 C   0  0  0  0  0  0  0  0  0  0  0  0
   -1.9908    1.1190   -0.1173 C   0  0  0  0  0  0  0  0  0  0  0  0
   -0.8585    1.9047   -0.2148 C   0  0  0  0  0  0  0  0  0  0  0  0
   -1.0129    3.5794   -0.6113 Cl  0  0  0  0  0  0  0  0  0  0  0  0
    0.3978    1.3741    0.0145 C   0  0  0  0  0  0  0  0  0  0  0  0
    0.5270    0.0221    0.3216 C   0  0  0  0  0  0  0  0  0  0  0  0
    1.8191   -0.5763    0.6365 C   0  0  0  0  0  0  0  0  0  0  0  0
    3.0152   -0.1385    0.2770 C   0  0  0  0  0  0  0  0  0  0  0  0
    3.2978    0.9123   -0.4826 F   0  0  0  0  0  0  0  0  0  0  0  0
    4.1497   -0.7394    0.6264 F   0  0  0  0  0  0  0  0  0  0  0  0
   -0.6185   -0.7913    0.3936 C   0  0  0  0  0  0  0  0  0  0  0  0
   -0.4789   -2.1342    0.6605 O   0  0  0  0  0  0  0  0  0  0  0  0
    0.0089   -2.9246   -0.4161 C   0  0  0  0  0  0  0  0  0  0  0  0
   -0.9975   -3.0590   -1.5527 C   0  0  0  0  0  0  0  0  0  0  0  0
   -4.2761   -2.5687    1.1088 H   0  0  0  0  0  0  0  0  0  0  0  0
   -2.5349   -2.4865    1.6810 H   0  0  0  0  0  0  0  0  0  0  0  0
   -3.9580   -0.5982   -0.2577 H   0  0  0  0  0  0  0  0  0  0  0  0
   -2.9634    1.5568   -0.2811 H   0  0  0  0  0  0  0  0  0  0  0  0
    1.2646    2.0117   -0.0315 H   0  0  0  0  0  0  0  0  0  0  0  0
    1.7973   -1.4731    1.2391 H   0  0  0  0  0  0  0  0  0  0  0  0
    0.2107   -3.9005    0.0320 H   0  0  0  0  0  0  0  0  0  0  0  0
    0.9488   -2.5084   -0.8029 H   0  0  0  0  0  0  0  0  0  0  0  0
   -1.9345   -3.4646   -1.1802 H   0  0  0  0  0  0  0  0  0  0  0  0
   -0.5982   -3.7231   -2.3142 H   0  0  0  0  0  0  0  0  0  0  0  0
   -1.1942   -2.0875   -2.0016 H   0  0  0  0  0  0  0  0  0  0  0  0
M  END
