
  xtb     02032210563D
 xtb: 6.4.1 (23d549d)
 46 48  0     0  0            999 V2000
    2.0672    0.4273   -1.3709 c   0  0  0  0  0  0  0  0  0  0  0  0
    2.0590    0.2712   -0.0524 c   0  0  0  0  0  0  0  0  0  0  0  0
    2.9944    0.8560    0.8995 c   0  0  0  0  0  0  0  0  0  0  0  0
    4.1473    1.5414    0.5129 c   0  0  0  0  0  0  0  0  0  0  0  0
    4.9949    2.0878    1.4535 c   0  0  0  0  0  0  0  0  0  0  0  0
    4.7313    1.9628    2.8160 c   0  0  0  0  0  0  0  0  0  0  0  0
    5.6339    2.5841    3.8011 c   0  0  0  0  0  0  0  0  0  0  0  0
    5.9182    3.9394    3.6685 c   0  0  0  0  0  0  0  0  0  0  0  0
    6.7460    4.6180    4.5483 c   0  0  0  0  0  0  0  0  0  0  0  0
    6.9746    6.0888    4.3593 c   0  0  0  0  0  0  0  0  0  0  0  0
    7.3205    3.9029    5.6026 c   0  0  0  0  0  0  0  0  0  0  0  0
    8.2204    4.5294    6.5872 c   0  0  0  0  0  0  0  0  0  0  0  0
    7.9435    4.4309    7.9482 c   0  0  0  0  0  0  0  0  0  0  0  0
    8.7871    4.9982    8.8806 c   0  0  0  0  0  0  0  0  0  0  0  0
    9.9490    5.6679    8.4916 c   0  0  0  0  0  0  0  0  0  0  0  0
   10.8130    6.2378    9.5172 c   0  0  0  0  0  0  0  0  0  0  0  0
   12.0204    6.7600    9.3378 c   0  0  0  0  0  0  0  0  0  0  0  0
   10.2257    5.7555    7.1264 c   0  0  0  0  0  0  0  0  0  0  0  0
    9.3759    5.1997    6.1930 c   0  0  0  0  0  0  0  0  0  0  0  0
    7.0363    2.5479    5.7357 c   0  0  0  0  0  0  0  0  0  0  0  0
    6.2094    1.8688    4.8548 c   0  0  0  0  0  0  0  0  0  0  0  0
    5.9843    0.3974    5.0431 c   0  0  0  0  0  0  0  0  0  0  0  0
    3.5846    1.2777    3.2076 c   0  0  0  0  0  0  0  0  0  0  0  0
    2.7348    0.7350    2.2660 c   0  0  0  0  0  0  0  0  0  0  0  0
    1.3261   -0.0422   -1.9949 h   0  0  0  0  0  0  0  0  0  0  0  0
    2.7997    1.0280   -1.8825 h   0  0  0  0  0  0  0  0  0  0  0  0
    1.2810   -0.3345    0.3976 h   0  0  0  0  0  0  0  0  0  0  0  0
    4.3871    1.6430   -0.5344 h   0  0  0  0  0  0  0  0  0  0  0  0
    5.8871    2.6089    1.1360 h   0  0  0  0  0  0  0  0  0  0  0  0
    5.4559    4.4857    2.8574 h   0  0  0  0  0  0  0  0  0  0  0  0
    6.0847    6.5568    3.9428 h   0  0  0  0  0  0  0  0  0  0  0  0
    7.7962    6.2613    3.6635 h   0  0  0  0  0  0  0  0  0  0  0  0
    7.2208    6.5728    5.3014 h   0  0  0  0  0  0  0  0  0  0  0  0
    7.0480    3.9180    8.2697 h   0  0  0  0  0  0  0  0  0  0  0  0
    8.5498    4.9188    9.9327 h   0  0  0  0  0  0  0  0  0  0  0  0
   10.4016    6.2042   10.5193 h   0  0  0  0  0  0  0  0  0  0  0  0
   12.4950    6.8137    8.3730 h   0  0  0  0  0  0  0  0  0  0  0  0
   12.5874    7.1562   10.1628 h   0  0  0  0  0  0  0  0  0  0  0  0
   11.1127    6.2699    6.7897 h   0  0  0  0  0  0  0  0  0  0  0  0
    9.6168    5.2666    5.1422 h   0  0  0  0  0  0  0  0  0  0  0  0
    7.4976    2.0023    6.5478 h   0  0  0  0  0  0  0  0  0  0  0  0
    6.8766   -0.0690    5.4561 h   0  0  0  0  0  0  0  0  0  0  0  0
    5.7362   -0.0862    4.1013 h   0  0  0  0  0  0  0  0  0  0  0  0
    5.1657    0.2223    5.7418 h   0  0  0  0  0  0  0  0  0  0  0  0
    3.3493    1.1899    4.2580 h   0  0  0  0  0  0  0  0  0  0  0  0
    1.8454    0.2120    2.5902 h   0  0  0  0  0  0  0  0  0  0  0  0
  1  2  2  0  0  0  0
  2  3  1  0  0  0  0
  3  4  4  0  0  0  0
  4  5  4  0  0  0  0
  5  6  4  0  0  0  0
  6  7  1  0  0  0  0
  7  8  4  0  0  0  0
  8  9  4  0  0  0  0
  9 10  1  0  0  0  0
  9 11  4  0  0  0  0
 11 12  1  0  0  0  0
 12 13  4  0  0  0  0
 13 14  4  0  0  0  0
 14 15  4  0  0  0  0
 15 16  1  0  0  0  0
 16 17  2  0  0  0  0
 15 18  4  0  0  0  0
 12 19  4  0  0  0  0
 18 19  4  0  0  0  0
 11 20  4  0  0  0  0
  7 21  4  0  0  0  0
 20 21  4  0  0  0  0
 21 22  1  0  0  0  0
  6 23  4  0  0  0  0
  3 24  4  0  0  0  0
 23 24  4  0  0  0  0
  1 25  1  0  0  0  0
  1 26  1  0  0  0  0
  2 27  1  0  0  0  0
  4 28  1  0  0  0  0
  5 29  1  0  0  0  0
  8 30  1  0  0  0  0
 10 31  1  0  0  0  0
 10 32  1  0  0  0  0
 10 33  1  0  0  0  0
 13 34  1  0  0  0  0
 14 35  1  0  0  0  0
 16 36  1  0  0  0  0
 17 37  1  0  0  0  0
 17 38  1  0  0  0  0
 18 39  1  0  0  0  0
 19 40  1  0  0  0  0
 20 41  1  0  0  0  0
 22 42  1  0  0  0  0
 22 43  1  0  0  0  0
 22 44  1  0  0  0  0
 23 45  1  0  0  0  0
 24 46  1  0  0  0  0
M  END
