
 OpenBabel02012214013D

 14 14  0  0  0  0  0  0  0  0999 V2000
   -2.7835    0.4404    0.0047 C   0  0  0  0  0  0  0  0  0  0  0  0
   -1.3211    0.1355    0.0085 C   0  0  0  0  0  0  0  0  0  0  0  0
   -0.8073   -1.1589    0.0118 C   0  0  0  0  0  0  0  0  0  0  0  0
    0.8711   -1.0520    0.0155 S   0  0  0  0  0  0  0  0  0  0  0  0
    0.8684    0.6302    0.0129 C   0  0  0  0  0  0  0  0  0  0  0  0
    2.0870    1.4887    0.0149 C   0  0  0  0  0  0  0  0  0  0  0  0
   -0.3880    1.1253    0.0091 N   0  0  0  0  0  0  0  0  0  0  0  0
   -3.3845   -0.4938    0.0054 H   0  0  0  0  0  0  0  0  0  0  0  0
   -3.0366    1.0287   -0.9018 H   0  0  0  0  0  0  0  0  0  0  0  0
   -3.0404    1.0325    0.9076 H   0  0  0  0  0  0  0  0  0  0  0  0
   -1.3836   -2.0746    0.0119 H   0  0  0  0  0  0  0  0  0  0  0  0
    3.0028    0.8611    0.0180 H   0  0  0  0  0  0  0  0  0  0  0  0
    2.0861    2.1318    0.9194 H   0  0  0  0  0  0  0  0  0  0  0  0
    2.0907    2.1296   -0.8911 H   0  0  0  0  0  0  0  0  0  0  0  0
  1  2  1  0  0  0  0
  1  8  1  0  0  0  0
  1  9  1  0  0  0  0
  1 10  1  0  0  0  0
  2  3  2  0  0  0  0
  2  7  1  0  0  0  0
  3  4  1  0  0  0  0
  3 11  1  0  0  0  0
  4  5  1  0  0  0  0
  5  6  1  0  0  0  0
  5  7  2  0  0  0  0
  6 12  1  0  0  0  0
  6 13  1  0  0  0  0
  6 14  1  0  0  0  0
M  END
