34

C          1.59897        0.67742       -0.39707
C          2.50192       -0.30896       -0.31457
C          3.18219       -0.73963        0.93882
C          3.60866       -2.06167        1.16858
C          4.23812       -2.40569        2.36812
C          4.45490       -1.44800        3.37250
C          5.12010       -1.89090        4.63310
C          5.53220       -3.15220        4.88250
C          6.21580       -3.58900        6.13550
C          6.50799       -2.72023        7.20617
C          7.15884       -3.19432        8.34902
C          7.54166       -4.54021        8.45584
C          8.24203       -4.97652        9.69566
C          8.53932       -4.17740       10.72936
C          7.24738       -5.40998        7.38897
C          6.59123       -4.93775        6.24822
C          4.02980       -0.12413        3.14059
C          3.40508        0.22055        1.93782
H          1.16005        0.91899       -1.36001
H          1.27932        1.25843        0.45734
H          2.75474       -0.82649       -1.23623
H          3.46488       -2.84120        0.43631
H          4.55175       -3.43245        2.51367
H          5.28830       -1.11980        5.37260
H          5.38860       -3.91750        4.13190
H          6.24144       -1.67495        7.18522
H          7.36872       -2.50027        9.15410
H          8.53296       -6.02014        9.77763
H          8.29150       -3.12524       10.75289
H          9.05065       -4.59172       11.59293
H          7.51650       -6.45500        7.41634
H          6.38314       -5.63360        5.44406
H          4.17111        0.65889        3.86804
H          3.09019        1.24655        1.78979
34

C          3.03751       -0.09994       -1.42929
C          2.48471       -0.03833       -0.21041
C          3.13855       -0.49818        1.04668
C          2.88538        0.08318        2.30382
C          3.53407       -0.39001        3.44783
C          4.45490       -1.44800        3.37250
C          5.12010       -1.89090        4.63310
C          5.53220       -3.15220        4.88250
C          6.21580       -3.58900        6.13550
C          6.10087       -4.88682        6.67300
C          6.76246       -5.22722        7.85660
C          7.54931       -4.28729        8.53983
C          8.21717       -4.71243        9.80129
C          8.12575       -5.93490       10.34232
C          7.66807       -2.99175        8.00246
C          7.01141       -2.65243        6.81565
C          4.70589       -2.03104        2.11385
C          4.05224       -1.56072        0.97050
H          2.47782        0.25942       -2.28711
H          4.02715       -0.49732       -1.60951
H          1.48223        0.37592       -0.14229
H          2.19232        0.90174        2.42287
H          3.31811        0.08128        4.39915
H          5.28830       -1.11980        5.37260
H          5.38860       -3.91750        4.13190
H          5.51047       -5.65417        6.19685
H          6.65319       -6.23351        8.24305
H          8.82961       -3.98405       10.32557
H          7.54716       -6.73446        9.90080
H          8.65424       -6.14925       11.26624
H          8.26071       -2.22857        8.48367
H          7.12157       -1.64519        6.43157
H          5.39670       -2.84922        1.98877
H          4.26656       -2.03004        0.01783
34

C          1.59702        0.96191       -0.29163
C          2.48471       -0.03833       -0.21041
C          3.13855       -0.49818        1.04668
C          2.88538        0.08318        2.30382
C          3.53407       -0.39001        3.44783
C          4.45490       -1.44800        3.37250
C          5.12010       -1.89090        4.63310
C          5.53220       -3.15220        4.88250
C          6.21580       -3.58900        6.13550
C          6.10087       -4.88682        6.67300
C          6.76246       -5.22722        7.85660
C          7.54931       -4.28729        8.53983
C          8.21717       -4.71243        9.80129
C          9.38136       -4.22674       10.25325
C          7.66807       -2.99175        8.00246
C          7.01141       -2.65243        6.81565
C          4.70589       -2.03104        2.11385
C          4.05224       -1.56072        0.97050
H          1.17713        1.22471       -1.25749
H          1.27168        1.53392        0.56670
H          2.74519       -0.54489       -1.13602
H          2.19232        0.90174        2.42287
H          3.31811        0.08128        4.39915
H          5.28830       -1.11980        5.37260
H          5.38860       -3.91750        4.13190
H          5.51047       -5.65417        6.19685
H          6.65319       -6.23351        8.24305
H          7.72801       -5.46929       10.40824
H          9.94806       -3.46889        9.73025
H          9.78664       -4.59966       11.18895
H          8.26071       -2.22857        8.48367
H          7.12157       -1.64519        6.43157
H          5.39670       -2.84922        1.98877
H          4.26656       -2.03004        0.01783
34

C          1.59702        0.96191       -0.29163
C          2.48471       -0.03833       -0.21041
C          3.13855       -0.49818        1.04668
C          2.88538        0.08318        2.30382
C          3.53407       -0.39001        3.44783
C          4.45490       -1.44800        3.37250
C          5.12010       -1.89090        4.63310
C          5.53220       -3.15220        4.88250
C          6.21580       -3.58900        6.13550
C          6.10087       -4.88682        6.67300
C          6.76246       -5.22722        7.85660
C          7.54931       -4.28729        8.53983
C          8.21717       -4.71243        9.80129
C          8.12575       -5.93490       10.34232
C          7.66807       -2.99175        8.00246
C          7.01141       -2.65243        6.81565
C          4.70589       -2.03104        2.11385
C          4.05224       -1.56072        0.97050
H          1.17713        1.22471       -1.25749
H          1.27168        1.53392        0.56670
H          2.74519       -0.54489       -1.13602
H          2.19232        0.90174        2.42287
H          3.31811        0.08128        4.39915
H          5.28830       -1.11980        5.37260
H          5.38860       -3.91750        4.13190
H          5.51047       -5.65417        6.19685
H          6.65319       -6.23351        8.24305
H          8.82961       -3.98405       10.32557
H          7.54716       -6.73446        9.90080
H          8.65424       -6.14925       11.26624
H          8.26071       -2.22857        8.48367
H          7.12157       -1.64519        6.43157
H          5.39670       -2.84922        1.98877
H          4.26656       -2.03004        0.01783
34

C          1.17279        0.38401       -0.26354
C          2.39660       -0.15827       -0.20605
C          3.06855       -0.61629        1.04212
C          2.36570       -1.09774        2.16314
C          3.05309       -1.50936        3.30836
C          4.45490       -1.44800        3.37250
C          5.12010       -1.89090        4.63310
C          5.53220       -3.15220        4.88250
C          6.21580       -3.58900        6.13550
C          6.50799       -2.72023        7.20617
C          7.15884       -3.19432        8.34902
C          7.54166       -4.54021        8.45584
C          8.24203       -4.97652        9.69566
C          8.53932       -4.17740       10.72936
C          7.24738       -5.40998        7.38897
C          6.59123       -4.93775        6.24822
C          5.15786       -0.96815        2.24879
C          4.46968       -0.56173        1.10121
H          0.76985        0.68958       -1.22402
H          0.55405        0.53932        0.60984
H          2.93483       -0.26518       -1.14418
H          1.28860       -1.16314        2.17427
H          2.48160       -1.87245        4.15414
H          5.28830       -1.11980        5.37260
H          5.38860       -3.91750        4.13190
H          6.24144       -1.67495        7.18522
H          7.36872       -2.50027        9.15410
H          8.53296       -6.02014        9.77763
H          8.29150       -3.12524       10.75289
H          9.05065       -4.59172       11.59293
H          7.51650       -6.45500        7.41634
H          6.38314       -5.63360        5.44406
H          6.23371       -0.90098        2.23158
H          5.03870       -0.19795        0.25407
34

C          3.03751       -0.09994       -1.42929
C          2.48471       -0.03833       -0.21041
C          3.13855       -0.49818        1.04668
C          2.88538        0.08318        2.30382
C          3.53407       -0.39001        3.44783
C          4.45490       -1.44800        3.37250
C          5.12010       -1.89090        4.63310
C          5.53220       -3.15220        4.88250
C          6.21580       -3.58900        6.13550
C          6.50799       -2.72023        7.20617
C          7.15884       -3.19432        8.34902
C          7.54166       -4.54021        8.45584
C          8.24203       -4.97652        9.69566
C          8.16756       -6.20487       10.22588
C          7.24738       -5.40998        7.38897
C          6.59123       -4.93775        6.24822
C          4.70589       -2.03104        2.11385
C          4.05224       -1.56072        0.97050
H          2.47782        0.25942       -2.28711
H          4.02715       -0.49732       -1.60951
H          1.48223        0.37592       -0.14229
H          2.19232        0.90174        2.42287
H          3.31811        0.08128        4.39915
H          5.28830       -1.11980        5.37260
H          5.38860       -3.91750        4.13190
H          6.24144       -1.67495        7.18522
H          7.36872       -2.50027        9.15410
H          8.86536       -4.25182       10.21215
H          7.58034       -7.00151        9.79052
H          8.71959       -6.42728       11.13399
H          7.51650       -6.45500        7.41634
H          6.38314       -5.63360        5.44406
H          5.39670       -2.84922        1.98877
H          4.26656       -2.03004        0.01783
34

C          1.59702        0.96191       -0.29163
C          2.48471       -0.03833       -0.21041
C          3.13855       -0.49818        1.04668
C          2.88538        0.08318        2.30382
C          3.53407       -0.39001        3.44783
C          4.45490       -1.44800        3.37250
C          5.12010       -1.89090        4.63310
C          5.53220       -3.15220        4.88250
C          6.21580       -3.58900        6.13550
C          6.50799       -2.72023        7.20617
C          7.15884       -3.19432        8.34902
C          7.54166       -4.54021        8.45584
C          8.24203       -4.97652        9.69566
C          7.63469       -5.44592       10.79398
C          7.24738       -5.40998        7.38897
C          6.59123       -4.93775        6.24822
C          4.70589       -2.03104        2.11385
C          4.05224       -1.56072        0.97050
H          1.17713        1.22471       -1.25749
H          1.27168        1.53392        0.56670
H          2.74519       -0.54489       -1.13602
H          2.19232        0.90174        2.42287
H          3.31811        0.08128        4.39915
H          5.28830       -1.11980        5.37260
H          5.38860       -3.91750        4.13190
H          6.24144       -1.67495        7.18522
H          7.36872       -2.50027        9.15410
H          9.32669       -4.91702        9.71746
H          6.56171       -5.55034       10.87663
H          8.23482       -5.74237       11.64886
H          7.51650       -6.45500        7.41634
H          6.38314       -5.63360        5.44406
H          5.39670       -2.84922        1.98877
H          4.26656       -2.03004        0.01783
34

C          3.03751       -0.09994       -1.42929
C          2.48471       -0.03833       -0.21041
C          3.13855       -0.49818        1.04668
C          2.88538        0.08318        2.30382
C          3.53407       -0.39001        3.44783
C          4.45490       -1.44800        3.37250
C          5.12010       -1.89090        4.63310
C          5.53220       -3.15220        4.88250
C          6.21580       -3.58900        6.13550
C          5.53010       -4.06857        7.26964
C          6.23294       -4.45377        8.41512
C          7.63266       -4.36702        8.46656
C          8.31798       -4.78268        9.72180
C          7.86351       -5.71481       10.57038
C          8.31927       -3.89168        7.33346
C          7.61734       -3.51186        6.18547
C          4.70589       -2.03104        2.11385
C          4.05224       -1.56072        0.97050
H          2.47782        0.25942       -2.28711
H          4.02715       -0.49732       -1.60951
H          1.48223        0.37592       -0.14229
H          2.19232        0.90174        2.42287
H          3.31811        0.08128        4.39915
H          5.28830       -1.11980        5.37260
H          5.38860       -3.91750        4.13190
H          4.45515       -4.15798        7.29418
H          5.67557       -4.81803        9.26986
H          9.25948       -4.30205        9.97297
H          6.94099       -6.25656       10.41390
H          8.43893       -5.95068       11.46039
H          9.39509       -3.80497        7.31525
H          8.17691       -3.14712        5.33223
H          5.39670       -2.84922        1.98877
H          4.26656       -2.03004        0.01783
34

C          2.97046        0.90711       -1.02603
C          2.48471       -0.03833       -0.21041
C          3.13855       -0.49818        1.04668
C          2.88538        0.08318        2.30382
C          3.53407       -0.39001        3.44783
C          4.45490       -1.44800        3.37250
C          5.12010       -1.89090        4.63310
C          5.53220       -3.15220        4.88250
C          6.21580       -3.58900        6.13550
C          5.53010       -4.06857        7.26964
C          6.23294       -4.45377        8.41512
C          7.63266       -4.36702        8.46656
C          8.31798       -4.78268        9.72180
C          7.69769       -5.23816       10.81875
C          8.31927       -3.89168        7.33346
C          7.61734       -3.51186        6.18547
C          4.70589       -2.03104        2.11385
C          4.05224       -1.56072        0.97050
H          2.41954        1.17146       -1.92317
H          3.89892        1.42906       -0.83814
H          1.54455       -0.50275       -0.49612
H          2.19232        0.90174        2.42287
H          3.31811        0.08128        4.39915
H          5.28830       -1.11980        5.37260
H          5.38860       -3.91750        4.13190
H          4.45515       -4.15798        7.29418
H          5.67557       -4.81803        9.26986
H          9.40204       -4.71899        9.75707
H          6.62407       -5.34519       10.88871
H          8.28742       -5.51995       11.68574
H          9.39509       -3.80497        7.31525
H          8.17691       -3.14712        5.33223
H          5.39670       -2.84922        1.98877
H          4.26656       -2.03004        0.01783
34

C          2.22137       -1.11196       -1.34972
C          2.50192       -0.30896       -0.31457
C          3.18219       -0.73963        0.93882
C          3.60866       -2.06167        1.16858
C          4.23812       -2.40569        2.36812
C          4.45490       -1.44800        3.37250
C          5.12010       -1.89090        4.63310
C          5.53220       -3.15220        4.88250
C          6.21580       -3.58900        6.13550
C          6.10087       -4.88682        6.67300
C          6.76246       -5.22722        7.85660
C          7.54931       -4.28729        8.53983
C          8.21717       -4.71243        9.80129
C          8.12575       -5.93490       10.34232
C          7.66807       -2.99175        8.00246
C          7.01141       -2.65243        6.81565
C          4.02980       -0.12413        3.14059
C          3.40508        0.22055        1.93782
H          1.71897       -0.70293       -2.22066
H          2.46985       -2.16448       -1.36495
H          2.20425        0.73268       -0.40171
H          3.46488       -2.84120        0.43631
H          4.55175       -3.43245        2.51367
H          5.28830       -1.11980        5.37260
H          5.38860       -3.91750        4.13190
H          5.51047       -5.65417        6.19685
H          6.65319       -6.23351        8.24305
H          8.82961       -3.98405       10.32557
H          7.54716       -6.73446        9.90080
H          8.65424       -6.14925       11.26624
H          8.26071       -2.22857        8.48367
H          7.12157       -1.64519        6.43157
H          4.17111        0.65889        3.86804
H          3.09019        1.24655        1.78979
