
 OpenBabel02032211203D

 23 23  0  0  0  0  0  0  0  0999 V2000
    2.8342   -0.1570   -1.1781 C   0  0  0  0  0  0  0  0  0  0  0  0
    2.3981    0.0109    0.0753 C   0  0  0  0  0  0  0  0  0  0  0  0
    3.1255    0.8313    1.0683 C   0  0  0  0  0  0  0  0  0  0  0  0
    2.6171    0.9846    2.3517 C   0  0  0  0  0  0  0  0  0  0  0  0
    3.3068    1.7635    3.2752 C   0  0  0  0  0  0  0  0  0  0  0  0
    4.5229    2.4071    2.9424 C   0  0  0  0  0  0  0  0  0  0  0  0
    5.2336    3.2300    3.9944 C   0  0  0  0  0  0  0  0  0  0  0  0
    4.6364    3.5979    5.1593 N   0  0  0  0  0  0  0  0  0  0  0  0
    6.3858    3.5865    3.8211 O   0  0  0  0  0  0  0  0  0  0  0  0
    5.0117    2.2169    1.6046 C   0  0  0  0  0  0  0  0  0  0  0  0
    6.2589    2.8382    1.0613 C   0  0  0  0  0  0  0  0  0  0  0  0
    6.6815    2.6171   -0.1909 C   0  0  0  0  0  0  0  0  0  0  0  0
    4.2904    1.4442    0.7418 N   0  0  0  0  0  0  0  0  0  0  0  0
    2.2633   -0.7670   -1.8710 H   0  0  0  0  0  0  0  0  0  0  0  0
    3.7515    0.3055   -1.5287 H   0  0  0  0  0  0  0  0  0  0  0  0
    1.4714   -0.4747    0.3685 H   0  0  0  0  0  0  0  0  0  0  0  0
    1.6906    0.5033    2.6415 H   0  0  0  0  0  0  0  0  0  0  0  0
    2.8660    1.8301    4.2555 H   0  0  0  0  0  0  0  0  0  0  0  0
    3.6621    3.3757    5.3914 H   0  0  0  0  0  0  0  0  0  0  0  0
    5.1607    4.1571    5.8492 H   0  0  0  0  0  0  0  0  0  0  0  0
    6.8758    3.5038    1.6401 H   0  0  0  0  0  0  0  0  0  0  0  0
    6.1436    1.9696   -0.8758 H   0  0  0  0  0  0  0  0  0  0  0  0
    7.5899    3.0937   -0.5462 H   0  0  0  0  0  0  0  0  0  0  0  0
  1  2  2  0  0  0  0
  1 14  1  0  0  0  0
  1 15  1  0  0  0  0
  2  3  1  0  0  0  0
  2 16  1  0  0  0  0
  3  4  1  0  0  0  0
  3 13  2  0  0  0  0
  4  5  2  0  0  0  0
  4 17  1  0  0  0  0
  5  6  1  0  0  0  0
  5 18  1  0  0  0  0
  6  7  1  0  0  0  0
  6 10  2  0  0  0  0
  7  8  1  0  0  0  0
  7  9  2  0  0  0  0
  8 19  1  0  0  0  0
  8 20  1  0  0  0  0
 10 11  1  0  0  0  0
 10 13  1  0  0  0  0
 11 12  2  0  0  0  0
 11 21  1  0  0  0  0
 12 22  1  0  0  0  0
 12 23  1  0  0  0  0
M  END
