
  xtb     02032211203D
 xtb: 6.4.1 (23d549d)
 23 23  0     0  0            999 V2000
    2.8044   -0.2063   -1.1106 c   0  0  0  0  0  0  0  0  0  0  0  0
    2.3951    0.0083    0.1337 c   0  0  0  0  0  0  0  0  0  0  0  0
    3.0693    0.9157    1.0553 c   0  0  0  0  0  0  0  0  0  0  0  0
    2.5729    1.1222    2.3470 c   0  0  0  0  0  0  0  0  0  0  0  0
    3.2854    1.9343    3.2063 c   0  0  0  0  0  0  0  0  0  0  0  0
    4.4549    2.5477    2.7669 c   0  0  0  0  0  0  0  0  0  0  0  0
    5.2468    3.3331    3.7596 c   0  0  0  0  0  0  0  0  0  0  0  0
    6.5437    2.9449    3.8634 n   0  0  0  0  0  0  0  0  0  0  0  0
    4.7630    4.1860    4.4716 o   0  0  0  0  0  0  0  0  0  0  0  0
    4.8241    2.3633    1.4229 c   0  0  0  0  0  0  0  0  0  0  0  0
    5.9281    3.0744    0.7748 c   0  0  0  0  0  0  0  0  0  0  0  0
    6.3241    4.3025    1.0801 c   0  0  0  0  0  0  0  0  0  0  0  0
    4.1593    1.5409    0.6238 n   0  0  0  0  0  0  0  0  0  0  0  0
    2.2901   -0.8812   -1.7727 h   0  0  0  0  0  0  0  0  0  0  0  0
    3.6735    0.3010   -1.4921 h   0  0  0  0  0  0  0  0  0  0  0  0
    1.5209   -0.4923    0.5284 h   0  0  0  0  0  0  0  0  0  0  0  0
    1.6618    0.6400    2.6661 h   0  0  0  0  0  0  0  0  0  0  0  0
    2.9593    2.0955    4.2236 h   0  0  0  0  0  0  0  0  0  0  0  0
    6.9580    2.3054    3.2091 h   0  0  0  0  0  0  0  0  0  0  0  0
    7.1448    3.4461    4.4966 h   0  0  0  0  0  0  0  0  0  0  0  0
    6.3580    2.5468   -0.0660 h   0  0  0  0  0  0  0  0  0  0  0  0
    5.8684    4.8731    1.8724 h   0  0  0  0  0  0  0  0  0  0  0  0
    7.1127    4.7903    0.5325 h   0  0  0  0  0  0  0  0  0  0  0  0
  1  2  2  0  0  0  0
  2  3  1  0  0  0  0
  3  4  4  0  0  0  0
  4  5  4  0  0  0  0
  5  6  4  0  0  0  0
  6  7  1  0  0  0  0
  7  8  4  0  0  0  0
  7  9  2  0  0  0  0
  6 10  4  0  0  0  0
 10 11  1  0  0  0  0
 11 12  2  0  0  0  0
  3 13  4  0  0  0  0
 10 13  4  0  0  0  0
  1 14  1  0  0  0  0
  1 15  1  0  0  0  0
  2 16  1  0  0  0  0
  4 17  1  0  0  0  0
  5 18  1  0  0  0  0
  8 19  1  0  0  0  0
  8 20  1  0  0  0  0
 11 21  1  0  0  0  0
 12 22  1  0  0  0  0
 12 23  1  0  0  0  0
M  END
