
  xtb     02012213593D
 xtb: 6.4.1 (23d549d)
 36 37  0     0  0            999 V2000
    2.5521    1.2196    0.3603 c   0  0  0  0  0  0  0  0  0  0  0  0
    1.3543    0.3874    0.0117 c   0  0  0  0  0  0  0  0  0  0  0  0
    1.3123   -0.3393   -1.1713 c   0  0  0  0  0  0  0  0  0  0  0  0
    0.2024   -1.0948   -1.4913 c   0  0  0  0  0  0  0  0  0  0  0  0
   -0.8899   -1.1392   -0.6358 c   0  0  0  0  0  0  0  0  0  0  0  0
   -1.9988   -1.8898   -1.0029 o   0  0  0  0  0  0  0  0  0  0  0  0
   -2.1507   -3.1129   -0.3144 c   0  0  0  0  0  0  0  0  0  0  0  0
   -1.1777   -4.2046   -0.8067 c   0  0  0  0  0  0  0  0  0  0  0  0
   -1.5630   -5.5869   -0.2589 c   0  0  0  0  0  0  0  0  0  0  0  0
   -1.2110   -5.7056    1.2230 c   0  0  0  0  0  0  0  0  0  0  0  0
    0.2668   -5.3702    1.4100 c   0  0  0  0  0  0  0  0  0  0  0  0
    0.5562   -3.9927    0.8143 c   0  0  0  0  0  0  0  0  0  0  0  0
    0.1819   -3.9102   -0.5421 o   0  0  0  0  0  0  0  0  0  0  0  0
   -0.8840   -0.3911    0.5434 c   0  0  0  0  0  0  0  0  0  0  0  0
   -2.0717   -0.3602    1.4617 c   0  0  0  0  0  0  0  0  0  0  0  0
    0.2476    0.3542    0.8462 c   0  0  0  0  0  0  0  0  0  0  0  0
    3.4611    0.7744   -0.0374 h   0  0  0  0  0  0  0  0  0  0  0  0
    2.6523    1.3260    1.4380 h   0  0  0  0  0  0  0  0  0  0  0  0
    2.4503    2.2171   -0.0691 h   0  0  0  0  0  0  0  0  0  0  0  0
    2.1580   -0.3190   -1.8432 h   0  0  0  0  0  0  0  0  0  0  0  0
    0.1692   -1.6702   -2.4027 h   0  0  0  0  0  0  0  0  0  0  0  0
   -3.1731   -3.4379   -0.5263 h   0  0  0  0  0  0  0  0  0  0  0  0
   -2.0436   -2.9654    0.7653 h   0  0  0  0  0  0  0  0  0  0  0  0
   -1.2319   -4.2144   -1.9022 h   0  0  0  0  0  0  0  0  0  0  0  0
   -1.0025   -6.3417   -0.8144 h   0  0  0  0  0  0  0  0  0  0  0  0
   -2.6271   -5.7624   -0.4208 h   0  0  0  0  0  0  0  0  0  0  0  0
   -1.4159   -6.7194    1.5729 h   0  0  0  0  0  0  0  0  0  0  0  0
   -1.8244   -5.0201    1.8114 h   0  0  0  0  0  0  0  0  0  0  0  0
    0.8744   -6.1153    0.8927 h   0  0  0  0  0  0  0  0  0  0  0  0
    0.5376   -5.3746    2.4666 h   0  0  0  0  0  0  0  0  0  0  0  0
    1.6280   -3.7808    0.8199 h   0  0  0  0  0  0  0  0  0  0  0  0
    0.0548   -3.2135    1.4069 h   0  0  0  0  0  0  0  0  0  0  0  0
   -2.9755   -0.6345    0.9222 h   0  0  0  0  0  0  0  0  0  0  0  0
   -2.1991    0.6381    1.8756 h   0  0  0  0  0  0  0  0  0  0  0  0
   -1.9396   -1.0501    2.2974 h   0  0  0  0  0  0  0  0  0  0  0  0
    0.2572    0.9317    1.7610 h   0  0  0  0  0  0  0  0  0  0  0  0
  1  2  1  0  0  0  0
  2  3  4  0  0  0  0
  3  4  4  0  0  0  0
  4  5  4  0  0  0  0
  5  6  1  0  0  0  0
  6  7  1  0  0  0  0
  7  8  1  0  0  0  0
  8  9  1  0  0  0  0
  9 10  1  0  0  0  0
 10 11  1  0  0  0  0
 11 12  1  0  0  0  0
  8 13  1  0  0  0  0
 12 13  1  0  0  0  0
  5 14  4  0  0  0  0
 14 15  1  0  0  0  0
  2 16  4  0  0  0  0
 14 16  4  0  0  0  0
  1 17  1  0  0  0  0
  1 18  1  0  0  0  0
  1 19  1  0  0  0  0
  3 20  1  0  0  0  0
  4 21  1  0  0  0  0
  7 22  1  0  0  0  0
  7 23  1  0  0  0  0
  8 24  1  0  0  0  0
  9 25  1  0  0  0  0
  9 26  1  0  0  0  0
 10 27  1  0  0  0  0
 10 28  1  0  0  0  0
 11 29  1  0  0  0  0
 11 30  1  0  0  0  0
 12 31  1  0  0  0  0
 12 32  1  0  0  0  0
 15 33  1  0  0  0  0
 15 34  1  0  0  0  0
 15 35  1  0  0  0  0
 16 36  1  0  0  0  0
M  END
