
  xtb     02032211353D
 xtb: 6.4.1 (23d549d)
 24 24  0     0  0            999 V2000
    4.2012    0.5860   -0.0360 C   0  0  0  0  0  0  0  0  0  0  0  0
    3.2461   -0.3300    0.0812 C   0  0  0  0  0  0  0  0  0  0  0  0
    1.8046   -0.1260    0.0524 C   0  0  0  0  0  0  0  0  0  0  0  0
    0.9682   -1.2434    0.1035 C   0  0  0  0  0  0  0  0  0  0  0  0
   -0.4170   -1.1713    0.0814 C   0  0  0  0  0  0  0  0  0  0  0  0
   -1.2435   -2.3717    0.1424 C   0  0  0  0  0  0  0  0  0  0  0  0
   -0.8746   -3.5853   -0.2458 C   0  0  0  0  0  0  0  0  0  0  0  0
   -1.0197    0.0996    0.0202 C   0  0  0  0  0  0  0  0  0  0  0  0
   -2.7804    0.1883   -0.0174 S   0  0  0  0  0  0  0  0  0  0  0  0
   -3.1338    1.9680    0.0069 C   0  0  0  0  0  0  0  0  0  0  0  0
   -0.2183    1.2292   -0.0328 C   0  0  0  0  0  0  0  0  0  0  0  0
    1.1571    1.1084   -0.0167 C   0  0  0  0  0  0  0  0  0  0  0  0
    1.8556    2.2643   -0.0616 F   0  0  0  0  0  0  0  0  0  0  0  0
    5.2396    0.3019   -0.0013 H   0  0  0  0  0  0  0  0  0  0  0  0
    4.0037    1.6336   -0.1702 H   0  0  0  0  0  0  0  0  0  0  0  0
    3.5311   -1.3679    0.2073 H   0  0  0  0  0  0  0  0  0  0  0  0
    1.4280   -2.2171    0.1793 H   0  0  0  0  0  0  0  0  0  0  0  0
   -2.2452   -2.2151    0.5222 H   0  0  0  0  0  0  0  0  0  0  0  0
    0.0946   -3.7886   -0.6694 H   0  0  0  0  0  0  0  0  0  0  0  0
   -1.5435   -4.4246   -0.1682 H   0  0  0  0  0  0  0  0  0  0  0  0
   -4.2167    2.0428    0.0347 H   0  0  0  0  0  0  0  0  0  0  0  0
   -2.7578    2.4386   -0.8969 H   0  0  0  0  0  0  0  0  0  0  0  0
   -2.7110    2.4217    0.8983 H   0  0  0  0  0  0  0  0  0  0  0  0
   -0.6297    2.2235   -0.0865 H   0  0  0  0  0  0  0  0  0  0  0  0
  1  2  2  0  0  0  0
  2  3  1  0  0  0  0
  3  4  4  0  0  0  0
  4  5  4  0  0  0  0
  5  6  1  0  0  0  0
  6  7  2  0  0  0  0
  5  8  4  0  0  0  0
  8  9  1  0  0  0  0
  9 10  1  0  0  0  0
  8 11  4  0  0  0  0
  3 12  4  0  0  0  0
 11 12  4  0  0  0  0
 12 13  1  0  0  0  0
  1 14  1  0  0  0  0
  1 15  1  0  0  0  0
  2 16  1  0  0  0  0
  4 17  1  0  0  0  0
  6 18  1  0  0  0  0
  7 19  1  0  0  0  0
  7 20  1  0  0  0  0
 10 21  1  0  0  0  0
 10 22  1  0  0  0  0
 10 23  1  0  0  0  0
 11 24  1  0  0  0  0
M  END
