
  xtb     02032211353D
 xtb: 6.4.1 (23d549d)
 23 23  0     0  0            999 V2000
   -2.7559    2.2153   -0.0595 C   0  0  0  0  0  0  0  0  0  0  0  0
   -2.5925    0.8976   -0.0438 C   0  0  0  0  0  0  0  0  0  0  0  0
   -1.2859    0.2552   -0.0204 C   0  0  0  0  0  0  0  0  0  0  0  0
   -0.2108    1.0409   -0.0833 N   0  0  0  0  0  0  0  0  0  0  0  0
    1.0043    0.5183   -0.0802 C   0  0  0  0  0  0  0  0  0  0  0  0
    2.1030    1.4754   -0.0767 C   0  0  0  0  0  0  0  0  0  0  0  0
    3.3182    1.2797    0.4225 C   0  0  0  0  0  0  0  0  0  0  0  0
    1.1507   -0.8921   -0.1159 C   0  0  0  0  0  0  0  0  0  0  0  0
    2.3535   -1.5266   -0.2348 N   0  0  0  0  0  0  0  0  0  0  0  0
    0.0828   -1.6789   -0.0127 N   0  0  0  0  0  0  0  0  0  0  0  0
   -1.1243   -1.1386    0.0741 C   0  0  0  0  0  0  0  0  0  0  0  0
   -2.2604   -2.0955    0.2513 C   0  0  0  0  0  0  0  0  0  0  0  0
   -3.7321    2.6686   -0.0785 H   0  0  0  0  0  0  0  0  0  0  0  0
   -1.9028    2.8711   -0.0526 H   0  0  0  0  0  0  0  0  0  0  0  0
   -3.4480    0.2373   -0.0474 H   0  0  0  0  0  0  0  0  0  0  0  0
    1.8317    2.4402   -0.4847 H   0  0  0  0  0  0  0  0  0  0  0  0
    3.6055    0.3643    0.9115 H   0  0  0  0  0  0  0  0  0  0  0  0
    4.0597    2.0606    0.4003 H   0  0  0  0  0  0  0  0  0  0  0  0
    3.1040   -1.0169   -0.6715 H   0  0  0  0  0  0  0  0  0  0  0  0
    2.2861   -2.5092   -0.4511 H   0  0  0  0  0  0  0  0  0  0  0  0
   -1.8616   -3.1015    0.3475 H   0  0  0  0  0  0  0  0  0  0  0  0
   -2.9289   -2.0599   -0.6080 H   0  0  0  0  0  0  0  0  0  0  0  0
   -2.8329   -1.8483    1.1436 H   0  0  0  0  0  0  0  0  0  0  0  0
  1  2  2  0  0  0  0
  2  3  1  0  0  0  0
  3  4  4  0  0  0  0
  4  5  4  0  0  0  0
  5  6  1  0  0  0  0
  6  7  2  0  0  0  0
  5  8  4  0  0  0  0
  8  9  1  0  0  0  0
  8 10  4  0  0  0  0
  3 11  4  0  0  0  0
 10 11  4  0  0  0  0
 11 12  1  0  0  0  0
  1 13  1  0  0  0  0
  1 14  1  0  0  0  0
  2 15  1  0  0  0  0
  6 16  1  0  0  0  0
  7 17  1  0  0  0  0
  7 18  1  0  0  0  0
  9 19  1  0  0  0  0
  9 20  1  0  0  0  0
 12 21  1  0  0  0  0
 12 22  1  0  0  0  0
 12 23  1  0  0  0  0
M  END
