
 OpenBabel02032210573D

 22 22  0  0  0  0  0  0  0  0999 V2000
    0.9593   -0.0521   -0.1968 C   0  0  0  0  0  0  0  0  0  0  0  0
    2.2812    0.1323   -0.0824 C   0  0  0  0  0  0  0  0  0  0  0  0
    3.0039    0.1389    1.1947 C   0  0  0  0  0  0  0  0  0  0  0  0
    4.1441    0.9367    1.3348 C   0  0  0  0  0  0  0  0  0  0  0  0
    4.8652    0.9584    2.5384 C   0  0  0  0  0  0  0  0  0  0  0  0
    4.4839    0.1754    3.6418 C   0  0  0  0  0  0  0  0  0  0  0  0
    5.3327    0.2983    4.8418 C   0  0  0  0  0  0  0  0  0  0  0  0
    4.9411    0.2095    6.1195 C   0  0  0  0  0  0  0  0  0  0  0  0
    3.3702   -0.6603    3.4614 C   0  0  0  0  0  0  0  0  0  0  0  0
    2.9449   -1.5996    4.4790 N   0  3  0  0  0  0  0  0  0  0  0  0
    3.7373   -2.4985    4.7946 O   0  0  0  0  0  0  0  0  0  0  0  0
    1.7943   -1.4680    4.9162 O   0  5  0  0  0  0  0  0  0  0  0  0
    2.6302   -0.6773    2.2639 C   0  0  0  0  0  0  0  0  0  0  0  0
    0.4847   -0.0431   -1.1733 H   0  0  0  0  0  0  0  0  0  0  0  0
    0.3100   -0.2004    0.6601 H   0  0  0  0  0  0  0  0  0  0  0  0
    2.8736    0.3059   -0.9784 H   0  0  0  0  0  0  0  0  0  0  0  0
    4.4823    1.5640    0.5114 H   0  0  0  0  0  0  0  0  0  0  0  0
    5.7361    1.6105    2.6014 H   0  0  0  0  0  0  0  0  0  0  0  0
    6.3806    0.5280    4.6514 H   0  0  0  0  0  0  0  0  0  0  0  0
    3.9212    0.0134    6.4310 H   0  0  0  0  0  0  0  0  0  0  0  0
    5.6685    0.3401    6.9170 H   0  0  0  0  0  0  0  0  0  0  0  0
    1.7778   -1.3477    2.1691 H   0  0  0  0  0  0  0  0  0  0  0  0
  1  2  2  0  0  0  0
  1 14  1  0  0  0  0
  1 15  1  0  0  0  0
  2  3  1  0  0  0  0
  2 16  1  0  0  0  0
  3  4  1  0  0  0  0
  3 13  2  0  0  0  0
  4  5  2  0  0  0  0
  4 17  1  0  0  0  0
  5  6  1  0  0  0  0
  5 18  1  0  0  0  0
  6  7  1  0  0  0  0
  6  9  2  0  0  0  0
  7  8  2  0  0  0  0
  7 19  1  0  0  0  0
  8 20  1  0  0  0  0
  8 21  1  0  0  0  0
  9 10  1  0  0  0  0
  9 13  1  0  0  0  0
 10 11  2  0  0  0  0
 10 12  1  0  0  0  0
 13 22  1  0  0  0  0
M  CHG  2  10   1  12  -1
M  END
