
 OpenBabel02032211293D

 26 26  0  0  0  0  0  0  0  0999 V2000
    2.7620   -1.1599    0.5416 C   0  0  0  0  0  0  0  0  0  0  0  0
    2.3397   -0.0537   -0.0827 C   0  0  0  0  0  0  0  0  0  0  0  0
    2.9661    0.4069   -1.2714 C   0  0  0  0  0  0  0  0  0  0  0  0
    2.6621    1.5221   -2.0246 C   0  0  0  0  0  0  0  0  0  0  0  0
    3.5942    1.6021   -3.1027 C   0  0  0  0  0  0  0  0  0  0  0  0
    3.6697    2.6619   -4.0926 C   0  0  0  0  0  0  0  0  0  0  0  0
    4.6663    2.9183   -4.7544 O   0  0  0  0  0  0  0  0  0  0  0  0
    2.5135    3.3814   -4.1228 O   0  0  0  0  0  0  0  0  0  0  0  0
    2.5946    4.7021   -4.6706 C   0  0  0  0  0  0  0  0  0  0  0  0
    2.7928    5.6536   -3.5053 C   0  0  0  0  0  0  0  0  0  0  0  0
    4.4317    0.4958   -2.9923 C   0  0  0  0  0  0  0  0  0  0  0  0
    5.5168    0.0719   -3.8146 C   0  0  0  0  0  0  0  0  0  0  0  0
    6.1899   -1.0539   -3.5456 C   0  0  0  0  0  0  0  0  0  0  0  0
    4.0291   -0.2102   -1.8789 O   0  0  0  0  0  0  0  0  0  0  0  0
    2.2834   -1.5023    1.4500 H   0  0  0  0  0  0  0  0  0  0  0  0
    3.5953   -1.7481    0.1659 H   0  0  0  0  0  0  0  0  0  0  0  0
    1.5090    0.5139    0.3245 H   0  0  0  0  0  0  0  0  0  0  0  0
    1.8751    2.2316   -1.8052 H   0  0  0  0  0  0  0  0  0  0  0  0
    1.6453    4.9123   -5.1723 H   0  0  0  0  0  0  0  0  0  0  0  0
    3.3930    4.8044   -5.4128 H   0  0  0  0  0  0  0  0  0  0  0  0
    1.9696    5.5497   -2.7889 H   0  0  0  0  0  0  0  0  0  0  0  0
    2.8427    6.6912   -3.8406 H   0  0  0  0  0  0  0  0  0  0  0  0
    3.7111    5.4088   -2.9603 H   0  0  0  0  0  0  0  0  0  0  0  0
    5.7960    0.6691   -4.6779 H   0  0  0  0  0  0  0  0  0  0  0  0
    5.9461   -1.6839   -2.6949 H   0  0  0  0  0  0  0  0  0  0  0  0
    7.0098   -1.3717   -4.1807 H   0  0  0  0  0  0  0  0  0  0  0  0
  1  2  2  0  0  0  0
  1 15  1  0  0  0  0
  1 16  1  0  0  0  0
  2  3  1  0  0  0  0
  2 17  1  0  0  0  0
  3  4  2  0  0  0  0
  3 14  1  0  0  0  0
  4  5  1  0  0  0  0
  4 18  1  0  0  0  0
  5  6  1  0  0  0  0
  5 11  2  0  0  0  0
  6  7  2  0  0  0  0
  6  8  1  0  0  0  0
  8  9  1  0  0  0  0
  9 10  1  0  0  0  0
  9 19  1  0  0  0  0
  9 20  1  0  0  0  0
 10 21  1  0  0  0  0
 10 22  1  0  0  0  0
 10 23  1  0  0  0  0
 11 12  1  0  0  0  0
 11 14  1  0  0  0  0
 12 13  2  0  0  0  0
 12 24  1  0  0  0  0
 13 25  1  0  0  0  0
 13 26  1  0  0  0  0
M  END
