
 OpenBabel02032211293D

 26 26  0  0  0  0  0  0  0  0999 V2000
    2.7149   -1.3572    0.5451 C   0  0  0  0  0  0  0  0  0  0  0  0
    2.3363   -0.2281   -0.0593 C   0  0  0  0  0  0  0  0  0  0  0  0
    3.0225    0.2763   -1.2602 C   0  0  0  0  0  0  0  0  0  0  0  0
    2.7005    1.4376   -1.9282 C   0  0  0  0  0  0  0  0  0  0  0  0
    3.5932    1.5303   -2.9763 C   0  0  0  0  0  0  0  0  0  0  0  0
    3.6224    2.6379   -3.9546 C   0  0  0  0  0  0  0  0  0  0  0  0
    4.4568    2.6574   -4.8465 O   0  0  0  0  0  0  0  0  0  0  0  0
    2.7111    3.6395   -3.8338 O   0  0  0  0  0  0  0  0  0  0  0  0
    2.6623    4.7871   -4.6034 C   0  0  0  0  0  0  0  0  0  0  0  0
    2.7666    6.0033   -3.6953 C   0  0  0  0  0  0  0  0  0  0  0  0
    4.4108    0.4062   -2.8838 C   0  0  0  0  0  0  0  0  0  0  0  0
    5.5318    0.0304   -3.7715 C   0  0  0  0  0  0  0  0  0  0  0  0
    6.2430   -1.0814   -3.5630 C   0  0  0  0  0  0  0  0  0  0  0  0
    4.0387   -0.3162   -1.8477 O   0  0  0  0  0  0  0  0  0  0  0  0
    2.1886   -1.6991    1.4303 H   0  0  0  0  0  0  0  0  0  0  0  0
    3.5459   -1.9466    0.1699 H   0  0  0  0  0  0  0  0  0  0  0  0
    1.5017    0.3353    0.3476 H   0  0  0  0  0  0  0  0  0  0  0  0
    1.9120    2.1350   -1.6763 H   0  0  0  0  0  0  0  0  0  0  0  0
    1.6933    4.8177   -5.1447 H   0  0  0  0  0  0  0  0  0  0  0  0
    3.4831    4.8245   -5.3529 H   0  0  0  0  0  0  0  0  0  0  0  0
    1.9340    5.9999   -2.9598 H   0  0  0  0  0  0  0  0  0  0  0  0
    2.7093    6.9323   -4.3004 H   0  0  0  0  0  0  0  0  0  0  0  0
    3.7335    5.9865   -3.1487 H   0  0  0  0  0  0  0  0  0  0  0  0
    5.7993    0.6553   -4.6143 H   0  0  0  0  0  0  0  0  0  0  0  0
    6.0224   -1.7475   -2.7344 H   0  0  0  0  0  0  0  0  0  0  0  0
    7.0611   -1.3339   -4.2299 H   0  0  0  0  0  0  0  0  0  0  0  0
  1  2  2  0  0  0  0
  1 15  1  0  0  0  0
  1 16  1  0  0  0  0
  2  3  1  0  0  0  0
  2 17  1  0  0  0  0
  3  4  2  0  0  0  0
  3 14  1  0  0  0  0
  4  5  1  0  0  0  0
  4 18  1  0  0  0  0
  5  6  1  0  0  0  0
  5 11  2  0  0  0  0
  6  7  2  0  0  0  0
  6  8  1  0  0  0  0
  8  9  1  0  0  0  0
  9 10  1  0  0  0  0
  9 19  1  0  0  0  0
  9 20  1  0  0  0  0
 10 21  1  0  0  0  0
 10 22  1  0  0  0  0
 10 23  1  0  0  0  0
 11 12  1  0  0  0  0
 11 14  1  0  0  0  0
 12 13  2  0  0  0  0
 12 24  1  0  0  0  0
 13 25  1  0  0  0  0
 13 26  1  0  0  0  0
M  END
