
  xtb     02032211353D
 xtb: 6.4.1 (23d549d)
 30 32  0     0  0            999 V2000
    5.5275   -1.2250   -0.0037 C   0  0  0  0  0  0  0  0  0  0  0  0
    4.8855   -0.0622   -0.0033 C   0  0  0  0  0  0  0  0  0  0  0  0
    3.4435    0.1451   -0.0025 C   0  0  0  0  0  0  0  0  0  0  0  0
    2.9633    1.4666   -0.0152 C   0  0  0  0  0  0  0  0  0  0  0  0
    1.6180    1.7604   -0.0161 C   0  0  0  0  0  0  0  0  0  0  0  0
    0.7057    0.7117   -0.0035 C   0  0  0  0  0  0  0  0  0  0  0  0
    1.1844   -0.6214    0.0101 C   0  0  0  0  0  0  0  0  0  0  0  0
    2.5357   -0.9116    0.0106 C   0  0  0  0  0  0  0  0  0  0  0  0
    0.1109   -1.4772    0.0215 N   0  0  0  0  0  0  0  0  0  0  0  0
   -1.0509   -0.7463    0.0153 C   0  0  0  0  0  0  0  0  0  0  0  0
   -2.3638   -1.1787    0.0229 C   0  0  0  0  0  0  0  0  0  0  0  0
   -3.3845   -0.2293    0.0116 C   0  0  0  0  0  0  0  0  0  0  0  0
   -4.7630   -0.7007    0.0161 C   0  0  0  0  0  0  0  0  0  0  0  0
   -5.8644    0.0387   -0.0497 C   0  0  0  0  0  0  0  0  0  0  0  0
   -3.0555    1.1368   -0.0024 C   0  0  0  0  0  0  0  0  0  0  0  0
   -1.7494    1.5719   -0.0080 C   0  0  0  0  0  0  0  0  0  0  0  0
   -0.7251    0.6313   -0.0003 C   0  0  0  0  0  0  0  0  0  0  0  0
    6.6031   -1.2694   -0.0051 H   0  0  0  0  0  0  0  0  0  0  0  0
    5.0201   -2.1744   -0.0037 H   0  0  0  0  0  0  0  0  0  0  0  0
    5.4683    0.8511   -0.0047 H   0  0  0  0  0  0  0  0  0  0  0  0
    3.6812    2.2745   -0.0249 H   0  0  0  0  0  0  0  0  0  0  0  0
    1.2757    2.7843   -0.0262 H   0  0  0  0  0  0  0  0  0  0  0  0
    2.8730   -1.9364    0.0216 H   0  0  0  0  0  0  0  0  0  0  0  0
    0.1670   -2.4808    0.0321 H   0  0  0  0  0  0  0  0  0  0  0  0
   -2.5980   -2.2341    0.0351 H   0  0  0  0  0  0  0  0  0  0  0  0
   -4.8654   -1.7782    0.0757 H   0  0  0  0  0  0  0  0  0  0  0  0
   -5.8455    1.1127   -0.1168 H   0  0  0  0  0  0  0  0  0  0  0  0
   -6.8415   -0.4134   -0.0411 H   0  0  0  0  0  0  0  0  0  0  0  0
   -3.8494    1.8666   -0.0056 H   0  0  0  0  0  0  0  0  0  0  0  0
   -1.5207    2.6272   -0.0180 H   0  0  0  0  0  0  0  0  0  0  0  0
  1  2  2  0  0  0  0
  2  3  1  0  0  0  0
  3  4  4  0  0  0  0
  4  5  4  0  0  0  0
  5  6  4  0  0  0  0
  6  7  4  0  0  0  0
  3  8  4  0  0  0  0
  7  8  4  0  0  0  0
  7  9  1  0  0  0  0
  9 10  1  0  0  0  0
 10 11  4  0  0  0  0
 11 12  4  0  0  0  0
 12 13  1  0  0  0  0
 13 14  2  0  0  0  0
 12 15  4  0  0  0  0
 15 16  4  0  0  0  0
  6 17  1  0  0  0  0
 10 17  4  0  0  0  0
 16 17  4  0  0  0  0
  1 18  1  0  0  0  0
  1 19  1  0  0  0  0
  2 20  1  0  0  0  0
  4 21  1  0  0  0  0
  5 22  1  0  0  0  0
  8 23  1  0  0  0  0
  9 24  1  0  0  0  0
 11 25  1  0  0  0  0
 13 26  1  0  0  0  0
 14 27  1  0  0  0  0
 14 28  1  0  0  0  0
 15 29  1  0  0  0  0
 16 30  1  0  0  0  0
M  END
