24

C          2.15874        0.78405       -1.02353
C          2.35520       -0.09640       -0.03620
C          3.13020        0.22500        1.16980
C          2.76750       -0.42600        2.35970
C          3.48430       -0.21730        3.54100
C          4.57080        0.65090        3.54740
O          5.36280        0.94050        4.62410
C          4.75710        0.87150        5.90854
C          4.92070        1.32120        2.36950
C          4.22290        1.11840        1.16510
C          4.57940        1.88350       -0.04640
C          5.14692        3.09448       -0.09320
F          5.48651        3.76403        1.02721
F          5.39255        3.65383       -1.29714
H          1.57088        0.51164       -1.89482
H          2.57580        1.78644       -0.99263
H          1.93259       -1.09670       -0.08168
H          1.92140       -1.11080        2.37080
H          3.16660       -0.74760        4.43230
H          5.52731        1.09349        6.65351
H          4.37501       -0.13415        6.11440
H          3.96787        1.62354        6.01088
H          5.75690        2.01580        2.41350
H          4.35374        1.40698       -0.99453
24

C          1.26149        0.58510       -0.39392
C          2.35520       -0.09640       -0.03620
C          3.13020        0.22500        1.16980
C          2.76750       -0.42600        2.35970
C          3.48430       -0.21730        3.54100
C          4.57080        0.65090        3.54740
O          5.36280        0.94050        4.62410
C          5.94407        2.23727        4.66808
C          4.92070        1.32120        2.36950
C          4.22290        1.11840        1.16510
C          4.57940        1.88350       -0.04640
C          5.42591        1.50859       -1.01264
F          6.05707        0.31712       -0.98173
F          5.64448        2.34528       -2.04939
H          0.70961        0.31012       -1.28765
H          0.89273        1.42704        0.18473
H          2.71318       -0.93612       -0.62610
H          1.92140       -1.11080        2.37080
H          3.16660       -0.74760        4.43230
H          6.51144        2.31766        5.60034
H          5.17530        3.01740        4.67804
H          6.64396        2.38167        3.83849
H          5.75690        2.01580        2.41350
H          4.10074        2.85074       -0.15720
24

C          1.34130       -0.96852       -0.03117
C          2.35520       -0.09640       -0.03620
C          3.13020        0.22500        1.16980
C          2.76750       -0.42600        2.35970
C          3.48430       -0.21730        3.54100
C          4.57080        0.65090        3.54740
O          5.36280        0.94050        4.62410
C          5.51709       -0.07734        5.60471
C          4.92070        1.32120        2.36950
C          4.22290        1.11840        1.16510
C          4.57940        1.88350       -0.04640
C          5.42591        1.50859       -1.01264
F          6.05707        0.31712       -0.98173
F          5.64448        2.34528       -2.04939
H          0.79905       -1.18720       -0.94609
H          1.02565       -1.47937        0.87387
H          2.65896        0.40835       -0.94956
H          1.92140       -1.11080        2.37080
H          3.16660       -0.74760        4.43230
H          6.20169        0.29830        6.37133
H          5.96306       -0.98020        5.17382
H          4.56211       -0.30102        6.09142
H          5.75690        2.01580        2.41350
H          4.10074        2.85074       -0.15720
24

C          1.26149        0.58510       -0.39392
C          2.35520       -0.09640       -0.03620
C          3.13020        0.22500        1.16980
C          2.76750       -0.42600        2.35970
C          3.48430       -0.21730        3.54100
C          4.57080        0.65090        3.54740
O          5.36280        0.94050        4.62410
C          6.72045        1.26796        4.35770
C          4.92070        1.32120        2.36950
C          4.22290        1.11840        1.16510
C          4.57940        1.88350       -0.04640
C          5.80148        2.29225       -0.40722
F          6.89260        2.01118        0.33399
F          5.94270        2.99749       -1.54975
H          0.70961        0.31012       -1.28765
H          0.89273        1.42704        0.18473
H          2.71318       -0.93612       -0.62610
H          1.92140       -1.11080        2.37080
H          3.16660       -0.74760        4.43230
H          7.20037        1.50531        5.31207
H          6.79761        2.15310        3.71718
H          7.25101        0.41560        3.92077
H          5.75690        2.01580        2.41350
H          3.75830        2.13757       -0.70836
24

C          1.06953       -0.46199        0.00849
C          2.35520       -0.09640       -0.03620
C          3.13020        0.22500        1.16980
C          2.76750       -0.42600        2.35970
C          3.48430       -0.21730        3.54100
C          4.57080        0.65090        3.54740
O          5.36280        0.94050        4.62410
C          6.41733        1.87165        4.41830
C          4.92070        1.32120        2.36950
C          4.22290        1.11840        1.16510
C          4.57940        1.88350       -0.04640
C          5.14692        3.09448       -0.09320
F          5.48651        3.76403        1.02721
F          5.39255        3.65383       -1.29714
H          0.53355       -0.70168       -0.90486
H          0.52192       -0.52833        0.94412
H          2.88991       -0.03312       -0.98031
H          1.92140       -1.11080        2.37080
H          3.16660       -0.74760        4.43230
H          6.92593        2.01753        5.37617
H          6.03133        2.84434        4.09491
H          7.15226        1.48093        3.70687
H          5.75690        2.01580        2.41350
H          4.35374        1.40698       -0.99453
24

C          1.26149        0.58510       -0.39392
C          2.35520       -0.09640       -0.03620
C          3.13020        0.22500        1.16980
C          2.76750       -0.42600        2.35970
C          3.48430       -0.21730        3.54100
C          4.57080        0.65090        3.54740
O          5.36280        0.94050        4.62410
C          6.41733        1.87165        4.41830
C          4.92070        1.32120        2.36950
C          4.22290        1.11840        1.16510
C          4.57940        1.88350       -0.04640
C          3.74693        2.29555       -1.00971
F          2.42101        2.05521       -0.95402
F          4.25113        2.97783       -2.05993
H          0.70961        0.31012       -1.28765
H          0.89273        1.42704        0.18473
H          2.71318       -0.93612       -0.62610
H          1.92140       -1.11080        2.37080
H          3.16660       -0.74760        4.43230
H          6.92593        2.01753        5.37617
H          6.03133        2.84434        4.09491
H          7.15226        1.48093        3.70687
H          5.75690        2.01580        2.41350
H          5.62888        2.13355       -0.16045
24

C          1.26149        0.58510       -0.39392
C          2.35520       -0.09640       -0.03620
C          3.13020        0.22500        1.16980
C          2.76750       -0.42600        2.35970
C          3.48430       -0.21730        3.54100
C          4.57080        0.65090        3.54740
O          5.36280        0.94050        4.62410
C          5.94407        2.23727        4.66808
C          4.92070        1.32120        2.36950
C          4.22290        1.11840        1.16510
C          4.57940        1.88350       -0.04640
C          4.13061        3.09612       -0.39123
F          3.27457        3.78582        0.39008
F          4.55579        3.64411       -1.54951
H          0.70961        0.31012       -1.28765
H          0.89273        1.42704        0.18473
H          2.71318       -0.93612       -0.62610
H          1.92140       -1.11080        2.37080
H          3.16660       -0.74760        4.43230
H          6.51144        2.31766        5.60034
H          5.17530        3.01740        4.67804
H          6.64396        2.38167        3.83849
H          5.75690        2.01580        2.41350
H          5.27905        1.40499       -0.72350
24

C          1.26149        0.58510       -0.39392
C          2.35520       -0.09640       -0.03620
C          3.13020        0.22500        1.16980
C          2.76750       -0.42600        2.35970
C          3.48430       -0.21730        3.54100
C          4.57080        0.65090        3.54740
O          5.36280        0.94050        4.62410
C          5.04676        0.29462        5.85063
C          4.92070        1.32120        2.36950
C          4.22290        1.11840        1.16510
C          4.57940        1.88350       -0.04640
C          5.80148        2.29225       -0.40722
F          6.89260        2.01118        0.33399
F          5.94270        2.99749       -1.54975
H          0.70961        0.31012       -1.28765
H          0.89273        1.42704        0.18473
H          2.71318       -0.93612       -0.62610
H          1.92140       -1.11080        2.37080
H          3.16660       -0.74760        4.43230
H          5.78956        0.60402        6.59226
H          5.10725       -0.79469        5.75344
H          4.06224        0.60552        6.21528
H          5.75690        2.01580        2.41350
H          3.75830        2.13757       -0.70836
24

C          2.69549       -1.08478       -0.87041
C          2.35520       -0.09640       -0.03620
C          3.13020        0.22500        1.16980
C          2.76750       -0.42600        2.35970
C          3.48430       -0.21730        3.54100
C          4.57080        0.65090        3.54740
O          5.36280        0.94050        4.62410
C          6.72045        1.26796        4.35770
C          4.92070        1.32120        2.36950
C          4.22290        1.11840        1.16510
C          4.57940        1.88350       -0.04640
C          5.42591        1.50859       -1.01264
F          6.05707        0.31712       -0.98173
F          5.64448        2.34528       -2.04939
H          2.10234       -1.28474       -1.75761
H          3.56140       -1.71588       -0.69262
H          1.48489        0.52619       -0.22648
H          1.92140       -1.11080        2.37080
H          3.16660       -0.74760        4.43230
H          7.20037        1.50531        5.31207
H          6.79761        2.15310        3.71718
H          7.25101        0.41560        3.92077
H          5.75690        2.01580        2.41350
H          4.10074        2.85074       -0.15720
24

C          2.88339       -0.05980       -1.26432
C          2.35520       -0.09640       -0.03620
C          3.13020        0.22500        1.16980
C          2.76750       -0.42600        2.35970
C          3.48430       -0.21730        3.54100
C          4.57080        0.65090        3.54740
O          5.36280        0.94050        4.62410
C          5.51709       -0.07734        5.60471
C          4.92070        1.32120        2.36950
C          4.22290        1.11840        1.16510
C          4.57940        1.88350       -0.04640
C          4.13061        3.09612       -0.39123
F          3.27457        3.78582        0.39008
F          4.55579        3.64411       -1.54951
H          2.27468       -0.29430       -2.13231
H          3.92438        0.19821       -1.43599
H          1.31189       -0.35774        0.12026
H          1.92140       -1.11080        2.37080
H          3.16660       -0.74760        4.43230
H          6.20169        0.29830        6.37133
H          5.96306       -0.98020        5.17382
H          4.56211       -0.30102        6.09142
H          5.75690        2.01580        2.41350
H          5.27905        1.40499       -0.72350
