19

C          1.37282        0.17239        0.79368
C          2.40130       -0.08080       -0.02330
C          3.13440       -1.36560       -0.00470
C          2.71910       -2.42110       -0.82750
C          3.41930       -3.62820       -0.79990
C          4.52280       -3.77520        0.04210
C          4.91680       -2.70340        0.85400
C          6.08480       -2.84490        1.75070
C          7.32788       -2.53335        1.36737
N          4.21520       -1.53590        0.80760
H          0.86566        1.13035        0.74262
H          1.02498       -0.56029        1.51531
H          2.70510        0.69044       -0.72577
H          1.86350       -2.31190       -1.48250
H          3.10680       -4.45000       -1.43130
H          5.06290       -4.71390        0.05980
H          5.93329       -3.21593        2.76064
H          7.53952       -2.15866        0.37067
H          8.15340       -2.65435        2.06126
19

C          2.72562        0.92051       -0.84884
C          2.40130       -0.08080       -0.02330
C          3.13440       -1.36560       -0.00470
C          2.71910       -2.42110       -0.82750
C          3.41930       -3.62820       -0.79990
C          4.52280       -3.77520        0.04210
C          4.91680       -2.70340        0.85400
C          6.08480       -2.84490        1.75070
C          5.97581       -3.28103        3.01053
N          4.21520       -1.53590        0.80760
H          2.15808        1.84510       -0.82547
H          3.54983        0.83600       -1.55033
H          1.56675        0.06093        0.65788
H          1.86350       -2.31190       -1.48250
H          3.10680       -4.45000       -1.43130
H          5.06290       -4.71390        0.05980
H          7.07172       -2.58587        1.37721
H          5.01581       -3.55394        3.43776
H          6.86213       -3.36798        3.63059
19

C          1.37282        0.17239        0.79368
C          2.40130       -0.08080       -0.02330
C          3.13440       -1.36560       -0.00470
C          2.71910       -2.42110       -0.82750
C          3.41930       -3.62820       -0.79990
C          4.52280       -3.77520        0.04210
C          4.91680       -2.70340        0.85400
C          6.08480       -2.84490        1.75070
C          5.97581       -3.28103        3.01053
N          4.21520       -1.53590        0.80760
H          0.86566        1.13035        0.74262
H          1.02498       -0.56029        1.51531
H          2.70510        0.69044       -0.72577
H          1.86350       -2.31190       -1.48250
H          3.10680       -4.45000       -1.43130
H          5.06290       -4.71390        0.05980
H          7.07172       -2.58587        1.37721
H          5.01581       -3.55394        3.43776
H          6.86213       -3.36798        3.63059
19

C          2.72562        0.92051       -0.84884
C          2.40130       -0.08080       -0.02330
C          3.13440       -1.36560       -0.00470
C          2.71910       -2.42110       -0.82750
C          3.41930       -3.62820       -0.79990
C          4.52280       -3.77520        0.04210
C          4.91680       -2.70340        0.85400
C          6.08480       -2.84490        1.75070
C          7.32788       -2.53335        1.36737
N          4.21520       -1.53590        0.80760
H          2.15808        1.84510       -0.82547
H          3.54983        0.83600       -1.55033
H          1.56675        0.06093        0.65788
H          1.86350       -2.31190       -1.48250
H          3.10680       -4.45000       -1.43130
H          5.06290       -4.71390        0.05980
H          5.93329       -3.21593        2.76064
H          7.53952       -2.15866        0.37067
H          8.15340       -2.65435        2.06126
19

C          1.37282        0.17239        0.79368
C          2.40130       -0.08080       -0.02330
C          3.13440       -1.36560       -0.00470
C          2.71910       -2.42110       -0.82750
C          3.41930       -3.62820       -0.79990
C          4.52280       -3.77520        0.04210
C          4.91680       -2.70340        0.85400
C          6.08480       -2.84490        1.75070
C          7.11582       -3.64871        1.46759
N          4.21520       -1.53590        0.80760
H          0.86566        1.13035        0.74262
H          1.02498       -0.56029        1.51531
H          2.70510        0.69044       -0.72577
H          1.86350       -2.31190       -1.48250
H          3.10680       -4.45000       -1.43130
H          5.06290       -4.71390        0.05980
H          6.11171       -2.27670        2.67646
H          7.14361       -4.24049        0.55785
H          7.95075       -3.71947        2.15714
19

C          1.37282        0.17239        0.79368
C          2.40130       -0.08080       -0.02330
C          3.13440       -1.36560       -0.00470
C          2.71910       -2.42110       -0.82750
C          3.41930       -3.62820       -0.79990
C          4.52280       -3.77520        0.04210
C          4.91680       -2.70340        0.85400
C          6.08480       -2.84490        1.75070
C          6.44700       -4.01856        2.28041
N          4.21520       -1.53590        0.80760
H          0.86566        1.13035        0.74262
H          1.02498       -0.56029        1.51531
H          2.70510        0.69044       -0.72577
H          1.86350       -2.31190       -1.48250
H          3.10680       -4.45000       -1.43130
H          5.06290       -4.71390        0.05980
H          6.67484       -1.96504        1.99212
H          5.89522       -4.93069        2.07503
H          7.31201       -4.07248        2.93343
19

C          2.31448        0.71341        1.04956
C          2.40130       -0.08080       -0.02330
C          3.13440       -1.36560       -0.00470
C          2.71910       -2.42110       -0.82750
C          3.41930       -3.62820       -0.79990
C          4.52280       -3.77520        0.04210
C          4.91680       -2.70340        0.85400
C          6.08480       -2.84490        1.75070
C          6.86665       -1.81138        2.08208
N          4.21520       -1.53590        0.80760
H          1.76488        1.64698        0.98736
H          2.78252        0.44947        1.99288
H          1.91215        0.23487       -0.94072
H          1.86350       -2.31190       -1.48250
H          3.10680       -4.45000       -1.43130
H          5.06290       -4.71390        0.05980
H          6.32178       -3.82366        2.15871
H          6.67869       -0.81098        1.70462
H          7.71302       -1.96473        2.74370
19

C          2.31448        0.71341        1.04956
C          2.40130       -0.08080       -0.02330
C          3.13440       -1.36560       -0.00470
C          2.71910       -2.42110       -0.82750
C          3.41930       -3.62820       -0.79990
C          4.52280       -3.77520        0.04210
C          4.91680       -2.70340        0.85400
C          6.08480       -2.84490        1.75070
C          6.49642       -1.85989        2.55667
N          4.21520       -1.53590        0.80760
H          1.76488        1.64698        0.98736
H          2.78252        0.44947        1.99288
H          1.91215        0.23487       -0.94072
H          1.86350       -2.31190       -1.48250
H          3.10680       -4.45000       -1.43130
H          5.06290       -4.71390        0.05980
H          6.63354       -3.78267        1.75910
H          5.98764       -0.90145        2.59046
H          7.35946       -2.01094        3.19694
19

C          1.76364        0.36783       -1.11025
C          2.40130       -0.08080       -0.02330
C          3.13440       -1.36560       -0.00470
C          2.71910       -2.42110       -0.82750
C          3.41930       -3.62820       -0.79990
C          4.52280       -3.77520        0.04210
C          4.91680       -2.70340        0.85400
C          6.08480       -2.84490        1.75070
C          7.32788       -2.53335        1.36737
N          4.21520       -1.53590        0.80760
H          1.23946        1.31732       -1.07549
H          1.75439       -0.19554       -2.03820
H          2.37680        0.52632        0.87746
H          1.86350       -2.31190       -1.48250
H          3.10680       -4.45000       -1.43130
H          5.06290       -4.71390        0.05980
H          5.93329       -3.21593        2.76064
H          7.53952       -2.15866        0.37067
H          8.15340       -2.65435        2.06126
19

C          1.09446       -0.00224       -0.29775
C          2.40130       -0.08080       -0.02330
C          3.13440       -1.36560       -0.00470
C          2.71910       -2.42110       -0.82750
C          3.41930       -3.62820       -0.79990
C          4.52280       -3.77520        0.04210
C          4.91680       -2.70340        0.85400
C          6.08480       -2.84490        1.75070
C          5.97581       -3.28103        3.01053
N          4.21520       -1.53590        0.80760
H          0.60015        0.96376       -0.29981
H          0.50543       -0.88623       -0.52173
H          2.93991        0.83772        0.19302
H          1.86350       -2.31190       -1.48250
H          3.10680       -4.45000       -1.43130
H          5.06290       -4.71390        0.05980
H          7.07172       -2.58587        1.37721
H          5.01581       -3.55394        3.43776
H          6.86213       -3.36798        3.63059
