
  xtb     02032211353D
 xtb: 6.4.1 (23d549d)
 21 21  0     0  0            999 V2000
    2.7142   -2.5246    0.1641 C   0  0  0  0  0  0  0  0  0  0  0  0
    2.5007   -1.2426   -0.1029 C   0  0  0  0  0  0  0  0  0  0  0  0
    1.2162   -0.5500   -0.0543 C   0  0  0  0  0  0  0  0  0  0  0  0
    1.2063    0.8432   -0.0865 C   0  0  0  0  0  0  0  0  0  0  0  0
    0.0000    1.5352   -0.0232 C   0  0  0  0  0  0  0  0  0  0  0  0
    0.0003    2.9499   -0.0450 C   0  0  0  0  0  0  0  0  0  0  0  0
    0.0010    4.0961   -0.0625 N   0  0  0  0  0  0  0  0  0  0  0  0
   -1.2063    0.8457    0.0613 C   0  0  0  0  0  0  0  0  0  0  0  0
   -1.2164   -0.5478    0.0718 C   0  0  0  0  0  0  0  0  0  0  0  0
   -2.5010   -1.2386    0.1417 C   0  0  0  0  0  0  0  0  0  0  0  0
   -2.7148   -2.5274   -0.0897 C   0  0  0  0  0  0  0  0  0  0  0  0
   -0.0002   -1.2259    0.0192 C   0  0  0  0  0  0  0  0  0  0  0  0
    3.7016   -2.9495    0.1092 H   0  0  0  0  0  0  0  0  0  0  0  0
    1.9280   -3.1993    0.4571 H   0  0  0  0  0  0  0  0  0  0  0  0
    3.3410   -0.6125   -0.3673 H   0  0  0  0  0  0  0  0  0  0  0  0
    2.1340    1.3939   -0.1496 H   0  0  0  0  0  0  0  0  0  0  0  0
   -2.1340    1.3981    0.1074 H   0  0  0  0  0  0  0  0  0  0  0  0
   -3.3408   -0.6014    0.3900 H   0  0  0  0  0  0  0  0  0  0  0  0
   -1.9290   -3.2099   -0.3655 H   0  0  0  0  0  0  0  0  0  0  0  0
   -3.7020   -2.9508   -0.0216 H   0  0  0  0  0  0  0  0  0  0  0  0
   -0.0003   -2.3034    0.0360 H   0  0  0  0  0  0  0  0  0  0  0  0
  1  2  2  0  0  0  0
  2  3  1  0  0  0  0
  3  4  4  0  0  0  0
  4  5  4  0  0  0  0
  5  6  1  0  0  0  0
  6  7  3  0  0  0  0
  5  8  4  0  0  0  0
  8  9  4  0  0  0  0
  9 10  1  0  0  0  0
 10 11  2  0  0  0  0
  3 12  4  0  0  0  0
  9 12  4  0  0  0  0
  1 13  1  0  0  0  0
  1 14  1  0  0  0  0
  2 15  1  0  0  0  0
  4 16  1  0  0  0  0
  8 17  1  0  0  0  0
 10 18  1  0  0  0  0
 11 19  1  0  0  0  0
 11 20  1  0  0  0  0
 12 21  1  0  0  0  0
M  END
