
  xtb     02032211343D
 xtb: 6.4.1 (23d549d)
 17 17  0     0  0            999 V2000
   -1.0287    2.2817   -0.0309 C   0  0  0  0  0  0  0  0  0  0  0  0
   -1.5716    1.2234   -0.6161 C   0  0  0  0  0  0  0  0  0  0  0  0
   -1.3781   -0.1517   -0.1967 C   0  0  0  0  0  0  0  0  0  0  0  0
   -2.4044   -1.1387   -0.2088 C   0  0  0  0  0  0  0  0  0  0  0  0
   -1.8742   -2.2557    0.3524 C   0  0  0  0  0  0  0  0  0  0  0  0
   -0.5974   -2.0520    0.7027 O   0  0  0  0  0  0  0  0  0  0  0  0
   -0.2772   -0.7771    0.3620 C   0  0  0  0  0  0  0  0  0  0  0  0
    1.0927   -0.4016    0.6054 C   0  0  0  0  0  0  0  0  0  0  0  0
    1.8061    0.5171   -0.0313 C   0  0  0  0  0  0  0  0  0  0  0  0
    1.4124    1.3002   -1.0250 F   0  0  0  0  0  0  0  0  0  0  0  0
    3.0754    0.7871    0.2661 F   0  0  0  0  0  0  0  0  0  0  0  0
   -1.2377    3.2808   -0.3701 H   0  0  0  0  0  0  0  0  0  0  0  0
   -0.3664    2.1890    0.8131 H   0  0  0  0  0  0  0  0  0  0  0  0
   -2.2720    1.3528   -1.4309 H   0  0  0  0  0  0  0  0  0  0  0  0
   -3.4029   -1.0077   -0.5724 H   0  0  0  0  0  0  0  0  0  0  0  0
   -2.2879   -3.2249    0.5498 H   0  0  0  0  0  0  0  0  0  0  0  0
    1.6119   -0.9893    1.3483 H   0  0  0  0  0  0  0  0  0  0  0  0
  1  2  2  0  0  0  0
  2  3  1  0  0  0  0
  3  4  4  0  0  0  0
  4  5  2  0  0  0  0
  5  6  1  0  0  0  0
  3  7  4  0  0  0  0
  6  7  1  0  0  0  0
  7  8  1  0  0  0  0
  8  9  2  0  0  0  0
  9 10  1  0  0  0  0
  9 11  1  0  0  0  0
  1 12  1  0  0  0  0
  1 13  1  0  0  0  0
  2 14  1  0  0  0  0
  4 15  1  0  0  0  0
  5 16  1  0  0  0  0
  8 17  1  0  0  0  0
M  END
