
 OpenBabel02012213593D

 36 37  0  0  1  0  0  0  0  0999 V2000
    2.5177    1.2891   -0.1261 C   0  0  0  0  0  0  0  0  0  0  0  0
    1.2982    0.4163   -0.0815 C   0  0  0  0  0  0  0  0  0  0  0  0
    1.4134   -0.9780   -0.1147 C   0  0  0  0  0  0  0  0  0  0  0  0
    0.2737   -1.7840   -0.0582 C   0  0  0  0  0  0  0  0  0  0  0  0
   -1.0125   -1.2068    0.0325 C   0  0  0  0  0  0  0  0  0  0  0  0
   -2.1550   -1.9448    0.1194 O   0  0  0  0  0  0  0  0  0  0  0  0
   -2.3250   -3.3205    0.1394 C   0  0  0  0  0  0  0  0  0  0  0  0
   -3.3208   -3.7503   -0.9609 C   0  0  2  0  0  0  0  0  0  0  0  0
   -4.6993   -3.0545   -0.8725 C   0  0  0  0  0  0  0  0  0  0  0  0
   -5.4868   -3.5820    0.3256 C   0  0  0  0  0  0  0  0  0  0  0  0
   -5.5869   -5.1000    0.1997 C   0  0  0  0  0  0  0  0  0  0  0  0
   -4.1788   -5.6975    0.0852 C   0  0  0  0  0  0  0  0  0  0  0  0
   -3.4658   -5.1684   -1.0275 O   0  0  0  0  0  0  0  0  0  0  0  0
   -1.1253    0.2027    0.0550 C   0  0  0  0  0  0  0  0  0  0  0  0
   -2.4608    0.8918    0.1471 C   0  0  0  0  0  0  0  0  0  0  0  0
    0.0296    0.9991   -0.0009 C   0  0  0  0  0  0  0  0  0  0  0  0
    3.4495    0.6871   -0.1864 H   0  0  0  0  0  0  0  0  0  0  0  0
    2.5629    1.9104    0.7939 H   0  0  0  0  0  0  0  0  0  0  0  0
    2.4708    1.9560   -1.0125 H   0  0  0  0  0  0  0  0  0  0  0  0
    2.3873   -1.4463   -0.1780 H   0  0  0  0  0  0  0  0  0  0  0  0
    0.4319   -2.8495   -0.0782 H   0  0  0  0  0  0  0  0  0  0  0  0
   -2.6990   -3.5897    1.1449 H   0  0  0  0  0  0  0  0  0  0  0  0
   -1.3838   -3.8754   -0.0159 H   0  0  0  0  0  0  0  0  0  0  0  0
   -2.8678   -3.4238   -1.9227 H   0  0  0  0  0  0  0  0  0  0  0  0
   -5.2715   -3.2921   -1.7971 H   0  0  0  0  0  0  0  0  0  0  0  0
   -4.5902   -1.9504   -0.8181 H   0  0  0  0  0  0  0  0  0  0  0  0
   -6.5022   -3.1316    0.3469 H   0  0  0  0  0  0  0  0  0  0  0  0
   -4.9729   -3.3126    1.2726 H   0  0  0  0  0  0  0  0  0  0  0  0
   -6.1641   -5.3570   -0.7160 H   0  0  0  0  0  0  0  0  0  0  0  0
   -6.1163   -5.5246    1.0796 H   0  0  0  0  0  0  0  0  0  0  0  0
   -4.2818   -6.7935   -0.0574 H   0  0  0  0  0  0  0  0  0  0  0  0
   -3.6059   -5.5694    1.0267 H   0  0  0  0  0  0  0  0  0  0  0  0
   -3.3097    0.1794    0.1847 H   0  0  0  0  0  0  0  0  0  0  0  0
   -2.6017    1.5464   -0.7386 H   0  0  0  0  0  0  0  0  0  0  0  0
   -2.4945    1.5158    1.0654 H   0  0  0  0  0  0  0  0  0  0  0  0
   -0.0614    2.0793    0.0241 H   0  0  0  0  0  0  0  0  0  0  0  0
  1  2  1  0  0  0  0
  1 17  1  0  0  0  0
  1 18  1  0  0  0  0
  1 19  1  0  0  0  0
  2  3  1  0  0  0  0
  2 16  2  0  0  0  0
  3  4  2  0  0  0  0
  3 20  1  0  0  0  0
  4  5  1  0  0  0  0
  4 21  1  0  0  0  0
  5  6  1  0  0  0  0
  5 14  2  0  0  0  0
  6  7  1  0  0  0  0
  7  8  1  0  0  0  0
  7 22  1  0  0  0  0
  7 23  1  0  0  0  0
  8  9  1  0  0  0  0
  8 13  1  0  0  0  0
  8 24  1  6  0  0  0
  9 10  1  0  0  0  0
  9 25  1  0  0  0  0
  9 26  1  0  0  0  0
 10 11  1  0  0  0  0
 10 27  1  0  0  0  0
 10 28  1  0  0  0  0
 11 12  1  0  0  0  0
 11 29  1  0  0  0  0
 11 30  1  0  0  0  0
 12 13  1  0  0  0  0
 12 31  1  0  0  0  0
 12 32  1  0  0  0  0
 14 15  1  0  0  0  0
 14 16  1  0  0  0  0
 15 33  1  0  0  0  0
 15 34  1  0  0  0  0
 15 35  1  0  0  0  0
 16 36  1  0  0  0  0
M  END
