 xtb: 6.5.0 (unknown)
          08122213093D

 27  0  0     0  0            999 V2000
   -4.0523    1.3969   -0.0218 C   0  0  0  0  0  0  0  0  0  0  0  0
   -2.8327    1.4353    0.4971 C   0  0  0  0  0  0  0  0  0  0  0  0
   -1.7811    0.4484    0.2574 C   0  0  0  0  0  0  0  0  0  0  0  0
   -2.0824   -0.8781   -0.0394 C   0  0  0  0  0  0  0  0  0  0  0  0
   -1.0643   -1.7960   -0.2206 C   0  0  0  0  0  0  0  0  0  0  0  0
   -1.4593   -3.4386   -0.5845 Cl  0  0  0  0  0  0  0  0  0  0  0  0
    0.2642   -1.4309   -0.1018 C   0  0  0  0  0  0  0  0  0  0  0  0
    0.5940   -0.1082    0.1913 C   0  0  0  0  0  0  0  0  0  0  0  0
    1.9633    0.3567    0.3438 C   0  0  0  0  0  0  0  0  0  0  0  0
    3.0868   -0.2985    0.0972 C   0  0  0  0  0  0  0  0  0  0  0  0
    3.2290   -1.5376   -0.3563 F   0  0  0  0  0  0  0  0  0  0  0  0
    4.2926    0.2367    0.2716 F   0  0  0  0  0  0  0  0  0  0  0  0
   -0.4367    0.8311    0.3672 C   0  0  0  0  0  0  0  0  0  0  0  0
   -0.1102    2.1347    0.6648 O   0  0  0  0  0  0  0  0  0  0  0  0
   -0.2010    3.0353   -0.4345 C   0  0  0  0  0  0  0  0  0  0  0  0
    0.0953    4.4346    0.0760 C   0  0  0  0  0  0  0  0  0  0  0  0
   -4.7819    2.1558    0.2020 H   0  0  0  0  0  0  0  0  0  0  0  0
   -4.3658    0.6201   -0.6988 H   0  0  0  0  0  0  0  0  0  0  0  0
   -2.5439    2.2510    1.1474 H   0  0  0  0  0  0  0  0  0  0  0  0
   -3.1108   -1.1947   -0.1033 H   0  0  0  0  0  0  0  0  0  0  0  0
    1.0325   -2.1741   -0.2315 H   0  0  0  0  0  0  0  0  0  0  0  0
    2.0739    1.3688    0.7053 H   0  0  0  0  0  0  0  0  0  0  0  0
   -1.2056    2.9892   -0.8768 H   0  0  0  0  0  0  0  0  0  0  0  0
    0.5271    2.7438   -1.2060 H   0  0  0  0  0  0  0  0  0  0  0  0
   -0.6277    4.7143    0.8373 H   0  0  0  0  0  0  0  0  0  0  0  0
    0.0425    5.1440   -0.7446 H   0  0  0  0  0  0  0  0  0  0  0  0
    1.0888    4.4695    0.5146 H   0  0  0  0  0  0  0  0  0  0  0  0
M  END
