
  xtb     02032210583D
 xtb: 6.4.1 (23d549d)
 18 18  0     0  0            999 V2000
    2.0367    0.6692   -1.0215 c   0  0  0  0  0  0  0  0  0  0  0  0
    2.8965    0.2724   -0.0912 c   0  0  0  0  0  0  0  0  0  0  0  0
    3.3381   -1.0952    0.1408 c   0  0  0  0  0  0  0  0  0  0  0  0
    2.8230   -2.2229   -0.5216 c   0  0  0  0  0  0  0  0  0  0  0  0
    3.3449   -3.4510   -0.1955 c   0  0  0  0  0  0  0  0  0  0  0  0
    4.3552   -3.4954    0.7807 c   0  0  0  0  0  0  0  0  0  0  0  0
    5.0064   -4.7134    1.2408 c   0  0  0  0  0  0  0  0  0  0  0  0
    4.6781   -5.9529    0.8976 c   0  0  0  0  0  0  0  0  0  0  0  0
    4.7886   -2.3765    1.3614 n   0  0  0  0  0  0  0  0  0  0  0  0
    4.2992   -1.2245    1.0554 n   0  0  0  0  0  0  0  0  0  0  0  0
    1.7684    1.7062   -1.1269 h   0  0  0  0  0  0  0  0  0  0  0  0
    1.5701   -0.0099   -1.7158 h   0  0  0  0  0  0  0  0  0  0  0  0
    3.3542    0.9877    0.5783 h   0  0  0  0  0  0  0  0  0  0  0  0
    2.0411   -2.1269   -1.2593 h   0  0  0  0  0  0  0  0  0  0  0  0
    2.9936   -4.3518   -0.6752 h   0  0  0  0  0  0  0  0  0  0  0  0
    5.8158   -4.5286    1.9335 h   0  0  0  0  0  0  0  0  0  0  0  0
    3.8700   -6.1791    0.2221 h   0  0  0  0  0  0  0  0  0  0  0  0
    5.2117   -6.8003    1.2918 h   0  0  0  0  0  0  0  0  0  0  0  0
  1  2  2  0  0  0  0
  2  3  1  0  0  0  0
  3  4  4  0  0  0  0
  4  5  2  0  0  0  0
  5  6  4  0  0  0  0
  6  7  1  0  0  0  0
  7  8  2  0  0  0  0
  6  9  4  0  0  0  0
  3 10  4  0  0  0  0
  9 10  4  0  0  0  0
  1 11  1  0  0  0  0
  1 12  1  0  0  0  0
  2 13  1  0  0  0  0
  4 14  1  0  0  0  0
  5 15  1  0  0  0  0
  7 16  1  0  0  0  0
  8 17  1  0  0  0  0
  8 18  1  0  0  0  0
M  END
