
  xtb     02032211353D
 xtb: 6.4.1 (23d549d)
 20 20  0     0  0            999 V2000
    3.8756    0.0824    0.0838 C   0  0  0  0  0  0  0  0  0  0  0  0
    2.7786    0.8258   -0.0201 C   0  0  0  0  0  0  0  0  0  0  0  0
    1.3975    0.3653   -0.0127 C   0  0  0  0  0  0  0  0  0  0  0  0
    0.3647    1.3118   -0.0121 C   0  0  0  0  0  0  0  0  0  0  0  0
    0.6793    2.6175   -0.0153 F   0  0  0  0  0  0  0  0  0  0  0  0
   -0.9773    0.9691   -0.0046 C   0  0  0  0  0  0  0  0  0  0  0  0
   -1.8700    1.9698   -0.0038 F   0  0  0  0  0  0  0  0  0  0  0  0
   -1.3975   -0.3654   -0.0008 C   0  0  0  0  0  0  0  0  0  0  0  0
   -2.7782   -0.8270    0.0065 C   0  0  0  0  0  0  0  0  0  0  0  0
   -3.8778   -0.0812    0.0454 C   0  0  0  0  0  0  0  0  0  0  0  0
   -0.3646   -1.3118   -0.0079 C   0  0  0  0  0  0  0  0  0  0  0  0
   -0.6787   -2.6177   -0.0094 F   0  0  0  0  0  0  0  0  0  0  0  0
    0.9775   -0.9692   -0.0128 C   0  0  0  0  0  0  0  0  0  0  0  0
    1.8706   -1.9694   -0.0256 F   0  0  0  0  0  0  0  0  0  0  0  0
    4.8466    0.5466    0.0677 H   0  0  0  0  0  0  0  0  0  0  0  0
    3.8631   -0.9868    0.1897 H   0  0  0  0  0  0  0  0  0  0  0  0
    2.8768    1.8991   -0.1128 H   0  0  0  0  0  0  0  0  0  0  0  0
   -2.8743   -1.9042   -0.0203 H   0  0  0  0  0  0  0  0  0  0  0  0
   -3.8694    0.9928    0.0771 H   0  0  0  0  0  0  0  0  0  0  0  0
   -4.8475   -0.5485    0.0474 H   0  0  0  0  0  0  0  0  0  0  0  0
  1  2  2  0  0  0  0
  2  3  1  0  0  0  0
  3  4  4  0  0  0  0
  4  5  1  0  0  0  0
  4  6  4  0  0  0  0
  6  7  1  0  0  0  0
  6  8  4  0  0  0  0
  8  9  1  0  0  0  0
  9 10  2  0  0  0  0
  8 11  4  0  0  0  0
 11 12  1  0  0  0  0
  3 13  4  0  0  0  0
 11 13  4  0  0  0  0
 13 14  1  0  0  0  0
  1 15  1  0  0  0  0
  1 16  1  0  0  0  0
  2 17  1  0  0  0  0
  9 18  1  0  0  0  0
 10 19  1  0  0  0  0
 10 20  1  0  0  0  0
M  END
