20

C          2.54806       -0.98656        0.85555
C          2.34910        0.01970       -0.00690
C          3.14360        1.27640       -0.01850
C          4.29500        1.34040       -0.80730
N          5.01360        2.48160       -0.87920
C          4.69600        3.59390       -0.17060
C          5.50650        4.76250       -0.40780
N          6.14670        5.69410       -0.59210
C          3.58030        3.57540        0.70980
C          3.15620        4.68690        1.62130
C          2.30147        5.67075        1.31371
C          2.79780        2.40910        0.74340
H          1.91455       -1.86628        0.80810
H          3.30446       -0.95329        1.63202
H          1.53611       -0.08244       -0.72402
H          4.60380        0.48680       -1.40090
H          3.62340        4.74326        2.60199
H          1.82841        5.77176        0.34987
H          2.09366        6.44593        2.04437
H          1.93460        2.38150        1.39230
20

C          1.33877       -0.23777       -0.84887
C          2.34910        0.01970       -0.00690
C          3.14360        1.27640       -0.01850
C          4.29500        1.34040       -0.80730
N          5.01360        2.48160       -0.87920
C          4.69600        3.59390       -0.17060
C          5.50650        4.76250       -0.40780
N          6.14670        5.69410       -0.59210
C          3.58030        3.57540        0.70980
C          3.15620        4.68690        1.62130
C          3.55674        4.85917        2.88741
C          2.79780        2.40910        0.74340
H          0.81682       -1.18699       -0.78535
H          1.02987        0.45468       -1.62428
H          2.61897       -0.75379        0.71041
H          4.60380        0.48680       -1.40090
H          2.41119        5.38803        1.25173
H          4.23379        4.19146        3.39607
H          3.15527        5.68409        3.46732
H          1.93460        2.38150        1.39230
20

C          1.33877       -0.23777       -0.84887
C          2.34910        0.01970       -0.00690
C          3.14360        1.27640       -0.01850
C          4.29500        1.34040       -0.80730
N          5.01360        2.48160       -0.87920
C          4.69600        3.59390       -0.17060
C          5.50650        4.76250       -0.40780
N          6.14670        5.69410       -0.59210
C          3.58030        3.57540        0.70980
C          3.15620        4.68690        1.62130
C          2.30147        5.67075        1.31371
C          2.79780        2.40910        0.74340
H          0.81682       -1.18699       -0.78535
H          1.02987        0.45468       -1.62428
H          2.61897       -0.75379        0.71041
H          4.60380        0.48680       -1.40090
H          3.62340        4.74326        2.60199
H          1.82841        5.77176        0.34987
H          2.09366        6.44593        2.04437
H          1.93460        2.38150        1.39230
20

C          2.54806       -0.98656        0.85555
C          2.34910        0.01970       -0.00690
C          3.14360        1.27640       -0.01850
C          4.29500        1.34040       -0.80730
N          5.01360        2.48160       -0.87920
C          4.69600        3.59390       -0.17060
C          5.50650        4.76250       -0.40780
N          6.14670        5.69410       -0.59210
C          3.58030        3.57540        0.70980
C          3.15620        4.68690        1.62130
C          3.55674        4.85917        2.88741
C          2.79780        2.40910        0.74340
H          1.91455       -1.86628        0.80810
H          3.30446       -0.95329        1.63202
H          1.53611       -0.08244       -0.72402
H          4.60380        0.48680       -1.40090
H          2.41119        5.38803        1.25173
H          4.23379        4.19146        3.39607
H          3.15527        5.68409        3.46732
H          1.93460        2.38150        1.39230
20

C          1.63432       -0.40715        1.04327
C          2.34910        0.01970       -0.00690
C          3.14360        1.27640       -0.01850
C          4.29500        1.34040       -0.80730
N          5.01360        2.48160       -0.87920
C          4.69600        3.59390       -0.17060
C          5.50650        4.76250       -0.40780
N          6.14670        5.69410       -0.59210
C          3.58030        3.57540        0.70980
C          3.15620        4.68690        1.62130
C          2.30147        5.67075        1.31371
C          2.79780        2.40910        0.74340
H          1.06835       -1.32984        0.96696
H          1.56752        0.14797        1.97254
H          2.32108       -0.58047       -0.91501
H          4.60380        0.48680       -1.40090
H          3.62340        4.74326        2.60199
H          1.82841        5.77176        0.34987
H          2.09366        6.44593        2.04437
H          1.93460        2.38150        1.39230
20

C          1.63432       -0.40715        1.04327
C          2.34910        0.01970       -0.00690
C          3.14360        1.27640       -0.01850
C          4.29500        1.34040       -0.80730
N          5.01360        2.48160       -0.87920
C          4.69600        3.59390       -0.17060
C          5.50650        4.76250       -0.40780
N          6.14670        5.69410       -0.59210
C          3.58030        3.57540        0.70980
C          3.15620        4.68690        1.62130
C          3.55674        4.85917        2.88741
C          2.79780        2.40910        0.74340
H          1.06835       -1.32984        0.96696
H          1.56752        0.14797        1.97254
H          2.32108       -0.58047       -0.91501
H          4.60380        0.48680       -1.40090
H          2.41119        5.38803        1.25173
H          4.23379        4.19146        3.39607
H          3.15527        5.68409        3.46732
H          1.93460        2.38150        1.39230
20

C          1.22304       -0.15031        0.69954
C          2.34910        0.01970       -0.00690
C          3.14360        1.27640       -0.01850
C          4.29500        1.34040       -0.80730
N          5.01360        2.48160       -0.87920
C          4.69600        3.59390       -0.17060
C          5.50650        4.76250       -0.40780
N          6.14670        5.69410       -0.59210
C          3.58030        3.57540        0.70980
C          3.15620        4.68690        1.62130
C          3.55674        4.85917        2.88741
C          2.79780        2.40910        0.74340
H          0.69233       -1.09511        0.64295
H          0.79102        0.63279        1.31294
H          2.68405       -0.80731       -0.63101
H          4.60380        0.48680       -1.40090
H          2.41119        5.38803        1.25173
H          4.23379        4.19146        3.39607
H          3.15527        5.68409        3.46732
H          1.93460        2.38150        1.39230
20

C          2.54806       -0.98656        0.85555
C          2.34910        0.01970       -0.00690
C          3.14360        1.27640       -0.01850
C          4.29500        1.34040       -0.80730
N          5.01360        2.48160       -0.87920
C          4.69600        3.59390       -0.17060
C          5.50650        4.76250       -0.40780
N          6.14670        5.69410       -0.59210
C          3.58030        3.57540        0.70980
C          3.15620        4.68690        1.62130
C          3.96635        5.59323        2.18288
C          2.79780        2.40910        0.74340
H          1.91455       -1.86628        0.80810
H          3.30446       -0.95329        1.63202
H          1.53611       -0.08244       -0.72402
H          4.60380        0.48680       -1.40090
H          2.10761        4.73526        1.90650
H          5.03534        5.60822        2.04140
H          3.55165        6.33536        2.85757
H          1.93460        2.38150        1.39230
20

C          1.63432       -0.40715        1.04327
C          2.34910        0.01970       -0.00690
C          3.14360        1.27640       -0.01850
C          4.29500        1.34040       -0.80730
N          5.01360        2.48160       -0.87920
C          4.69600        3.59390       -0.17060
C          5.50650        4.76250       -0.40780
N          6.14670        5.69410       -0.59210
C          3.58030        3.57540        0.70980
C          3.15620        4.68690        1.62130
C          1.90050        4.95220        2.00337
C          2.79780        2.40910        0.74340
H          1.06835       -1.32984        0.96696
H          1.56752        0.14797        1.97254
H          2.32108       -0.58047       -0.91501
H          4.60380        0.48680       -1.40090
H          3.92057        5.38226        1.96106
H          1.04379        4.38492        1.67594
H          1.70564        5.80841        2.64125
H          1.93460        2.38150        1.39230
20

C          1.33877       -0.23777       -0.84887
C          2.34910        0.01970       -0.00690
C          3.14360        1.27640       -0.01850
C          4.29500        1.34040       -0.80730
N          5.01360        2.48160       -0.87920
C          4.69600        3.59390       -0.17060
C          5.50650        4.76250       -0.40780
N          6.14670        5.69410       -0.59210
C          3.58030        3.57540        0.70980
C          3.15620        4.68690        1.62130
C          3.34542        5.99469        1.40442
C          2.79780        2.40910        0.74340
H          0.81682       -1.18699       -0.78535
H          1.02987        0.45468       -1.62428
H          2.61897       -0.75379        0.71041
H          4.60380        0.48680       -1.40090
H          2.70725        4.41631        2.57442
H          3.84548        6.38994        0.53455
H          3.02651        6.71222        2.15369
H          1.93460        2.38150        1.39230
