
  xtb     02032211343D
 xtb: 6.4.1 (23d549d)
 48 51  0     0  0            999 V2000
    7.0913   -2.9645    0.2401 F   0  0  0  0  0  0  0  0  0  0  0  0
    6.1076   -2.0724    0.3708 C   0  0  0  0  0  0  0  0  0  0  0  0
    6.5430   -1.0614    1.1166 F   0  0  0  0  0  0  0  0  0  0  0  0
    4.9120   -2.2285   -0.1802 C   0  0  0  0  0  0  0  0  0  0  0  0
    3.7636   -1.3447   -0.1182 C   0  0  0  0  0  0  0  0  0  0  0  0
    2.5998   -1.7210   -0.7961 C   0  0  0  0  0  0  0  0  0  0  0  0
    1.4741   -0.9298   -0.7813 C   0  0  0  0  0  0  0  0  0  0  0  0
    1.4667    0.2784   -0.0786 C   0  0  0  0  0  0  0  0  0  0  0  0
    0.3324    1.0834   -0.0585 N   0  0  0  0  0  0  0  0  0  0  0  0
   -0.9450    0.5082   -0.0844 C   0  0  0  0  0  0  0  0  0  0  0  0
   -1.2123   -0.6636    0.6229 C   0  0  0  0  0  0  0  0  0  0  0  0
   -2.4735   -1.2209    0.5985 C   0  0  0  0  0  0  0  0  0  0  0  0
   -3.5069   -0.6312   -0.1275 C   0  0  0  0  0  0  0  0  0  0  0  0
   -4.8492   -1.2285   -0.1502 C   0  0  0  0  0  0  0  0  0  0  0  0
   -5.4106   -1.7604    1.0087 C   0  0  0  0  0  0  0  0  0  0  0  0
   -6.6745   -2.3197    0.9868 C   0  0  0  0  0  0  0  0  0  0  0  0
   -7.3974   -2.3624   -0.1936 C   0  0  0  0  0  0  0  0  0  0  0  0
   -6.8486   -1.8390   -1.3523 C   0  0  0  0  0  0  0  0  0  0  0  0
   -5.5870   -1.2745   -1.3313 C   0  0  0  0  0  0  0  0  0  0  0  0
   -3.2331    0.5409   -0.8302 C   0  0  0  0  0  0  0  0  0  0  0  0
   -1.9746    1.1046   -0.8114 C   0  0  0  0  0  0  0  0  0  0  0  0
    0.4556    2.4797   -0.0125 C   0  0  0  0  0  0  0  0  0  0  0  0
    1.4543    3.1263   -0.7394 C   0  0  0  0  0  0  0  0  0  0  0  0
    1.5684    4.5021   -0.6909 C   0  0  0  0  0  0  0  0  0  0  0  0
    0.6880    5.2528    0.0710 C   0  0  0  0  0  0  0  0  0  0  0  0
   -0.3097    4.6149    0.7897 C   0  0  0  0  0  0  0  0  0  0  0  0
   -0.4267    3.2389    0.7546 C   0  0  0  0  0  0  0  0  0  0  0  0
    2.6264    0.6587    0.6028 C   0  0  0  0  0  0  0  0  0  0  0  0
    3.7512   -0.1350    0.5822 C   0  0  0  0  0  0  0  0  0  0  0  0
    4.7886   -3.1389   -0.7494 H   0  0  0  0  0  0  0  0  0  0  0  0
    2.5865   -2.6476   -1.3514 H   0  0  0  0  0  0  0  0  0  0  0  0
    0.5907   -1.2359   -1.3217 H   0  0  0  0  0  0  0  0  0  0  0  0
   -0.4238   -1.1310    1.1945 H   0  0  0  0  0  0  0  0  0  0  0  0
   -2.6583   -2.1359    1.1417 H   0  0  0  0  0  0  0  0  0  0  0  0
   -4.8592   -1.7149    1.9367 H   0  0  0  0  0  0  0  0  0  0  0  0
   -7.0990   -2.7226    1.8950 H   0  0  0  0  0  0  0  0  0  0  0  0
   -8.3839   -2.8015   -0.2104 H   0  0  0  0  0  0  0  0  0  0  0  0
   -7.4060   -1.8730   -2.2772 H   0  0  0  0  0  0  0  0  0  0  0  0
   -5.1580   -0.8833   -2.2425 H   0  0  0  0  0  0  0  0  0  0  0  0
   -4.0215    1.0246   -1.3879 H   0  0  0  0  0  0  0  0  0  0  0  0
   -1.7789    2.0135   -1.3614 H   0  0  0  0  0  0  0  0  0  0  0  0
    2.1346    2.5434   -1.3430 H   0  0  0  0  0  0  0  0  0  0  0  0
    2.3452    4.9916   -1.2594 H   0  0  0  0  0  0  0  0  0  0  0  0
    0.7785    6.3278    0.1037 H   0  0  0  0  0  0  0  0  0  0  0  0
   -0.9979    5.1921    1.3894 H   0  0  0  0  0  0  0  0  0  0  0  0
   -1.2001    2.7421    1.3220 H   0  0  0  0  0  0  0  0  0  0  0  0
    2.6336    1.5842    1.1590 H   0  0  0  0  0  0  0  0  0  0  0  0
    4.6238    0.1878    1.1257 H   0  0  0  0  0  0  0  0  0  0  0  0
  1  2  1  0  0  0  0
  2  3  1  0  0  0  0
  2  4  2  0  0  0  0
  4  5  1  0  0  0  0
  5  6  4  0  0  0  0
  6  7  4  0  0  0  0
  7  8  4  0  0  0  0
  8  9  1  0  0  0  0
  9 10  1  0  0  0  0
 10 11  4  0  0  0  0
 11 12  4  0  0  0  0
 12 13  4  0  0  0  0
 13 14  1  0  0  0  0
 14 15  4  0  0  0  0
 15 16  4  0  0  0  0
 16 17  4  0  0  0  0
 17 18  4  0  0  0  0
 14 19  4  0  0  0  0
 18 19  4  0  0  0  0
 13 20  4  0  0  0  0
 10 21  4  0  0  0  0
 20 21  4  0  0  0  0
  9 22  1  0  0  0  0
 22 23  4  0  0  0  0
 23 24  4  0  0  0  0
 24 25  4  0  0  0  0
 25 26  4  0  0  0  0
 22 27  4  0  0  0  0
 26 27  4  0  0  0  0
  8 28  4  0  0  0  0
  5 29  4  0  0  0  0
 28 29  4  0  0  0  0
  4 30  1  0  0  0  0
  6 31  1  0  0  0  0
  7 32  1  0  0  0  0
 11 33  1  0  0  0  0
 12 34  1  0  0  0  0
 15 35  1  0  0  0  0
 16 36  1  0  0  0  0
 17 37  1  0  0  0  0
 18 38  1  0  0  0  0
 19 39  1  0  0  0  0
 20 40  1  0  0  0  0
 21 41  1  0  0  0  0
 23 42  1  0  0  0  0
 24 43  1  0  0  0  0
 25 44  1  0  0  0  0
 26 45  1  0  0  0  0
 27 46  1  0  0  0  0
 28 47  1  0  0  0  0
 29 48  1  0  0  0  0
M  END
