
 OpenBabel02012213523D

 32 33  0  0  0  0  0  0  0  0999 V2000
    1.0349    0.0205    0.1635 C   0  0  0  0  0  0  0  0  0  0  0  0
    2.5296    0.0452    0.0633 C   0  0  0  0  0  0  0  0  0  0  0  0
    3.2321    1.2491   -0.0393 C   0  0  0  0  0  0  0  0  0  0  0  0
    4.6331    1.2569   -0.1623 C   0  0  0  0  0  0  0  0  0  0  0  0
    5.3612    2.5661   -0.2973 C   0  0  0  0  0  0  0  0  0  0  0  0
    5.3369    0.0388   -0.1967 C   0  0  0  0  0  0  0  0  0  0  0  0
    6.7007    0.1302   -0.2902 O   0  0  0  0  0  0  0  0  0  0  0  0
    7.3685   -0.9406   -0.9603 C   0  0  0  0  0  0  0  0  0  0  0  0
    8.8437   -0.6156   -1.0371 C   0  0  0  0  0  0  0  0  0  0  0  0
    9.7947   -1.4711   -0.4598 C   0  0  0  0  0  0  0  0  0  0  0  0
   11.1558   -1.1655   -0.5229 C   0  0  0  0  0  0  0  0  0  0  0  0
   11.5825   -0.0056   -1.1657 C   0  0  0  0  0  0  0  0  0  0  0  0
   10.6494    0.8480   -1.7515 C   0  0  0  0  0  0  0  0  0  0  0  0
    9.2869    0.5441   -1.6896 C   0  0  0  0  0  0  0  0  0  0  0  0
    4.6389   -1.1630   -0.0779 C   0  0  0  0  0  0  0  0  0  0  0  0
    3.2510   -1.1492    0.0454 C   0  0  0  0  0  0  0  0  0  0  0  0
    2.6025   -2.3179    0.1527 F   0  0  0  0  0  0  0  0  0  0  0  0
    0.6227    1.0305    0.2597 H   0  0  0  0  0  0  0  0  0  0  0  0
    0.7185   -0.5519    1.0415 H   0  0  0  0  0  0  0  0  0  0  0  0
    0.6073   -0.4338   -0.7360 H   0  0  0  0  0  0  0  0  0  0  0  0
    2.6886    2.1923   -0.0240 H   0  0  0  0  0  0  0  0  0  0  0  0
    4.6832    3.4177   -0.1756 H   0  0  0  0  0  0  0  0  0  0  0  0
    5.8158    2.6396   -1.2911 H   0  0  0  0  0  0  0  0  0  0  0  0
    6.1402    2.6541    0.4670 H   0  0  0  0  0  0  0  0  0  0  0  0
    6.9757   -1.0610   -1.9780 H   0  0  0  0  0  0  0  0  0  0  0  0
    7.2385   -1.8781   -0.4099 H   0  0  0  0  0  0  0  0  0  0  0  0
    9.4824   -2.3783    0.0511 H   0  0  0  0  0  0  0  0  0  0  0  0
   11.8831   -1.8310   -0.0651 H   0  0  0  0  0  0  0  0  0  0  0  0
   12.6412    0.2349   -1.2077 H   0  0  0  0  0  0  0  0  0  0  0  0
   10.9808    1.7536   -2.2518 H   0  0  0  0  0  0  0  0  0  0  0  0
    8.5679    1.2230   -2.1426 H   0  0  0  0  0  0  0  0  0  0  0  0
    5.1342   -2.1255   -0.0555 H   0  0  0  0  0  0  0  0  0  0  0  0
  1  2  1  0  0  0  0
  1 18  1  0  0  0  0
  1 19  1  0  0  0  0
  1 20  1  0  0  0  0
  2  3  1  0  0  0  0
  2 16  2  0  0  0  0
  3  4  2  0  0  0  0
  3 21  1  0  0  0  0
  4  5  1  0  0  0  0
  4  6  1  0  0  0  0
  5 22  1  0  0  0  0
  5 23  1  0  0  0  0
  5 24  1  0  0  0  0
  6  7  1  0  0  0  0
  6 15  2  0  0  0  0
  7  8  1  0  0  0  0
  8  9  1  0  0  0  0
  8 25  1  0  0  0  0
  8 26  1  0  0  0  0
  9 10  1  0  0  0  0
  9 14  2  0  0  0  0
 10 11  2  0  0  0  0
 10 27  1  0  0  0  0
 11 12  1  0  0  0  0
 11 28  1  0  0  0  0
 12 13  2  0  0  0  0
 12 29  1  0  0  0  0
 13 14  1  0  0  0  0
 13 30  1  0  0  0  0
 14 31  1  0  0  0  0
 15 16  1  0  0  0  0
 15 32  1  0  0  0  0
 16 17  1  0  0  0  0
M  END
