
  xtb     02032211353D
 xtb: 6.4.1 (23d549d)
 24 24  0     0  0            999 V2000
   -3.5380    0.1488    0.1795 C   0  0  0  0  0  0  0  0  0  0  0  0
   -2.3941   -0.2147   -0.3834 C   0  0  0  0  0  0  0  0  0  0  0  0
   -1.1076    0.4472   -0.1553 C   0  0  0  0  0  0  0  0  0  0  0  0
   -1.0745    1.8250    0.0252 C   0  0  0  0  0  0  0  0  0  0  0  0
    0.1305    2.4783    0.1999 C   0  0  0  0  0  0  0  0  0  0  0  0
    1.3033    1.7572    0.1900 C   0  0  0  0  0  0  0  0  0  0  0  0
    1.3007    0.3718    0.0047 C   0  0  0  0  0  0  0  0  0  0  0  0
    2.5595   -0.1567    0.0724 O   0  0  0  0  0  0  0  0  0  0  0  0
    2.8335   -1.5119   -0.1771 C   0  0  0  0  0  0  0  0  0  0  0  0
    0.0861   -0.3016   -0.1721 C   0  0  0  0  0  0  0  0  0  0  0  0
   -0.0283   -1.7646   -0.3372 C   0  0  0  0  0  0  0  0  0  0  0  0
   -0.6920   -2.5395    0.5065 C   0  0  0  0  0  0  0  0  0  0  0  0
   -4.4613   -0.3603   -0.0384 H   0  0  0  0  0  0  0  0  0  0  0  0
   -3.5952    0.9544    0.8925 H   0  0  0  0  0  0  0  0  0  0  0  0
   -2.3789   -1.0575   -1.0622 H   0  0  0  0  0  0  0  0  0  0  0  0
   -1.9974    2.3833    0.0053 H   0  0  0  0  0  0  0  0  0  0  0  0
    0.1565    3.5486    0.3387 H   0  0  0  0  0  0  0  0  0  0  0  0
    2.2593    2.2368    0.3286 H   0  0  0  0  0  0  0  0  0  0  0  0
    3.8872   -1.6388    0.0736 H   0  0  0  0  0  0  0  0  0  0  0  0
    2.6908   -1.7644   -1.2320 H   0  0  0  0  0  0  0  0  0  0  0  0
    2.2317   -2.1761    0.4476 H   0  0  0  0  0  0  0  0  0  0  0  0
    0.4220   -2.1940   -1.2235 H   0  0  0  0  0  0  0  0  0  0  0  0
   -1.1554   -2.1396    1.3932 H   0  0  0  0  0  0  0  0  0  0  0  0
   -0.7877   -3.6009    0.3498 H   0  0  0  0  0  0  0  0  0  0  0  0
  1  2  2  0  0  0  0
  2  3  1  0  0  0  0
  3  4  4  0  0  0  0
  4  5  4  0  0  0  0
  5  6  4  0  0  0  0
  6  7  4  0  0  0  0
  7  8  1  0  0  0  0
  8  9  1  0  0  0  0
  3 10  4  0  0  0  0
  7 10  4  0  0  0  0
 10 11  1  0  0  0  0
 11 12  2  0  0  0  0
  1 13  1  0  0  0  0
  1 14  1  0  0  0  0
  2 15  1  0  0  0  0
  4 16  1  0  0  0  0
  5 17  1  0  0  0  0
  6 18  1  0  0  0  0
  9 19  1  0  0  0  0
  9 20  1  0  0  0  0
  9 21  1  0  0  0  0
 11 22  1  0  0  0  0
 12 23  1  0  0  0  0
 12 24  1  0  0  0  0
M  END
