
  xtb     02032211353D
 xtb: 6.4.1 (23d549d)
 20 20  0     0  0            999 V2000
   -3.5114    1.0522   -0.1349 C   0  0  0  0  0  0  0  0  0  0  0  0
   -2.9007   -0.1094    0.0638 C   0  0  0  0  0  0  0  0  0  0  0  0
   -1.4625   -0.3553    0.0404 C   0  0  0  0  0  0  0  0  0  0  0  0
   -1.0059   -1.6752    0.0705 C   0  0  0  0  0  0  0  0  0  0  0  0
    0.3454   -1.9561    0.0355 C   0  0  0  0  0  0  0  0  0  0  0  0
    1.2473   -0.9121   -0.0209 C   0  0  0  0  0  0  0  0  0  0  0  0
    2.5662   -1.2089   -0.0513 F   0  0  0  0  0  0  0  0  0  0  0  0
    0.8454    0.4262   -0.0353 C   0  0  0  0  0  0  0  0  0  0  0  0
    1.8508    1.4824   -0.0852 C   0  0  0  0  0  0  0  0  0  0  0  0
    1.6414    2.7720    0.1460 C   0  0  0  0  0  0  0  0  0  0  0  0
   -0.5246    0.6724   -0.0089 C   0  0  0  0  0  0  0  0  0  0  0  0
   -4.5843    1.1316   -0.1019 H   0  0  0  0  0  0  0  0  0  0  0  0
   -2.9796    1.9642   -0.3450 H   0  0  0  0  0  0  0  0  0  0  0  0
   -3.5015   -0.9909    0.2519 H   0  0  0  0  0  0  0  0  0  0  0  0
   -1.7177   -2.4864    0.1130 H   0  0  0  0  0  0  0  0  0  0  0  0
    0.7103   -2.9713    0.0518 H   0  0  0  0  0  0  0  0  0  0  0  0
    2.8518    1.1420   -0.3163 H   0  0  0  0  0  0  0  0  0  0  0  0
    0.6754    3.1695    0.4074 H   0  0  0  0  0  0  0  0  0  0  0  0
    2.4456    3.4851    0.0914 H   0  0  0  0  0  0  0  0  0  0  0  0
   -0.8634    1.6948   -0.0303 H   0  0  0  0  0  0  0  0  0  0  0  0
  1  2  2  0  0  0  0
  2  3  1  0  0  0  0
  3  4  4  0  0  0  0
  4  5  4  0  0  0  0
  5  6  4  0  0  0  0
  6  7  1  0  0  0  0
  6  8  4  0  0  0  0
  8  9  1  0  0  0  0
  9 10  2  0  0  0  0
  3 11  4  0  0  0  0
  8 11  4  0  0  0  0
  1 12  1  0  0  0  0
  1 13  1  0  0  0  0
  2 14  1  0  0  0  0
  4 15  1  0  0  0  0
  5 16  1  0  0  0  0
  9 17  1  0  0  0  0
 10 18  1  0  0  0  0
 10 19  1  0  0  0  0
 11 20  1  0  0  0  0
M  END
