
  xtb     02032211353D
 xtb: 6.4.1 (23d549d)
 26 26  0     0  0            999 V2000
   -4.4744    0.6551   -0.4519 C   0  0  0  0  0  0  0  0  0  0  0  0
   -3.6976   -0.4166   -0.5515 C   0  0  0  0  0  0  0  0  0  0  0  0
   -2.2835   -0.5048   -0.2065 C   0  0  0  0  0  0  0  0  0  0  0  0
   -1.6573   -1.7516   -0.2311 C   0  0  0  0  0  0  0  0  0  0  0  0
   -0.3225   -1.8747    0.0967 C   0  0  0  0  0  0  0  0  0  0  0  0
    0.4326   -0.7696    0.4611 C   0  0  0  0  0  0  0  0  0  0  0  0
    1.8938   -0.9321    0.7730 C   0  0  0  0  0  0  0  0  0  0  0  0
    2.7763   -0.2482   -0.2651 C   0  0  0  0  0  0  0  0  0  0  0  0
    2.3899    0.2436   -1.2805 O   0  0  0  0  0  0  0  0  0  0  0  0
    4.0905   -0.2512    0.0440 O   0  0  0  0  0  0  0  0  0  0  0  0
   -0.1726    0.4943    0.4780 C   0  0  0  0  0  0  0  0  0  0  0  0
    0.5860    1.6922    0.8416 C   0  0  0  0  0  0  0  0  0  0  0  0
    0.4108    2.8845    0.2915 C   0  0  0  0  0  0  0  0  0  0  0  0
   -1.5188    0.6025    0.1484 C   0  0  0  0  0  0  0  0  0  0  0  0
   -5.5137    0.6204   -0.7308 H   0  0  0  0  0  0  0  0  0  0  0  0
   -4.1170    1.6033   -0.0885 H   0  0  0  0  0  0  0  0  0  0  0  0
   -4.1278   -1.3426   -0.9141 H   0  0  0  0  0  0  0  0  0  0  0  0
   -2.2239   -2.6292   -0.5079 H   0  0  0  0  0  0  0  0  0  0  0  0
    0.1433   -2.8502    0.0665 H   0  0  0  0  0  0  0  0  0  0  0  0
    2.1552   -1.9950    0.7809 H   0  0  0  0  0  0  0  0  0  0  0  0
    2.1299   -0.5188    1.7595 H   0  0  0  0  0  0  0  0  0  0  0  0
    4.2795   -0.6867    0.8854 H   0  0  0  0  0  0  0  0  0  0  0  0
    1.3399    1.5713    1.6098 H   0  0  0  0  0  0  0  0  0  0  0  0
   -0.2967    3.0456   -0.5037 H   0  0  0  0  0  0  0  0  0  0  0  0
    0.9928    3.7381    0.5940 H   0  0  0  0  0  0  0  0  0  0  0  0
   -1.9753    1.5789    0.1801 H   0  0  0  0  0  0  0  0  0  0  0  0
  1  2  2  0  0  0  0
  2  3  1  0  0  0  0
  3  4  4  0  0  0  0
  4  5  4  0  0  0  0
  5  6  4  0  0  0  0
  6  7  1  0  0  0  0
  7  8  1  0  0  0  0
  8  9  2  0  0  0  0
  8 10  1  0  0  0  0
  6 11  4  0  0  0  0
 11 12  1  0  0  0  0
 12 13  2  0  0  0  0
  3 14  4  0  0  0  0
 11 14  4  0  0  0  0
  1 15  1  0  0  0  0
  1 16  1  0  0  0  0
  2 17  1  0  0  0  0
  4 18  1  0  0  0  0
  5 19  1  0  0  0  0
  7 20  1  0  0  0  0
  7 21  1  0  0  0  0
 10 22  1  0  0  0  0
 12 23  1  0  0  0  0
 13 24  1  0  0  0  0
 13 25  1  0  0  0  0
 14 26  1  0  0  0  0
M  END
