
  xtb     02032211343D
 xtb: 6.4.1 (23d549d)
 42 45  0     0  0            999 V2000
   -4.2626   -4.3303   -0.0915 C   0  0  0  0  0  0  0  0  0  0  0  0
   -3.3012   -3.1790   -0.0943 C   0  0  0  0  0  0  0  0  0  0  0  0
   -3.7490   -1.8742    0.0083 C   0  0  0  0  0  0  0  0  0  0  0  0
   -2.8268   -0.8359    0.0093 C   0  0  0  0  0  0  0  0  0  0  0  0
   -2.9550    0.5934    0.0722 C   0  0  0  0  0  0  0  0  0  0  0  0
   -4.0446    1.4460    0.1918 C   0  0  0  0  0  0  0  0  0  0  0  0
   -3.8336    2.8117    0.2548 C   0  0  0  0  0  0  0  0  0  0  0  0
   -4.9827    3.7681    0.3762 C   0  0  0  0  0  0  0  0  0  0  0  0
   -2.5271    3.3099    0.2156 C   0  0  0  0  0  0  0  0  0  0  0  0
   -1.4267    2.4850    0.0972 C   0  0  0  0  0  0  0  0  0  0  0  0
   -1.6461    1.1182    0.0051 C   0  0  0  0  0  0  0  0  0  0  0  0
   -0.7387    0.0775   -0.0868 N   0  0  0  0  0  0  0  0  0  0  0  0
    0.6476    0.2049   -0.1734 C   0  0  0  0  0  0  0  0  0  0  0  0
    1.4810   -0.5637    0.6384 C   0  0  0  0  0  0  0  0  0  0  0  0
    2.8517   -0.4446    0.5503 C   0  0  0  0  0  0  0  0  0  0  0  0
    3.4342    0.4528   -0.3482 C   0  0  0  0  0  0  0  0  0  0  0  0
    4.8684    0.6303   -0.4918 C   0  0  0  0  0  0  0  0  0  0  0  0
    5.8468    0.0035    0.1457 C   0  0  0  0  0  0  0  0  0  0  0  0
    5.7475   -0.9417    1.0737 F   0  0  0  0  0  0  0  0  0  0  0  0
    7.1366    0.2548   -0.0757 F   0  0  0  0  0  0  0  0  0  0  0  0
    2.5906    1.2231   -1.1537 C   0  0  0  0  0  0  0  0  0  0  0  0
    1.2205    1.1021   -1.0741 C   0  0  0  0  0  0  0  0  0  0  0  0
   -1.4455   -1.1124   -0.0830 C   0  0  0  0  0  0  0  0  0  0  0  0
   -0.9925   -2.4171   -0.2150 C   0  0  0  0  0  0  0  0  0  0  0  0
   -1.9303   -3.4300   -0.2133 C   0  0  0  0  0  0  0  0  0  0  0  0
   -5.2895   -3.9792   -0.0315 H   0  0  0  0  0  0  0  0  0  0  0  0
   -4.0697   -4.9840    0.7587 H   0  0  0  0  0  0  0  0  0  0  0  0
   -4.1501   -4.9233   -0.9984 H   0  0  0  0  0  0  0  0  0  0  0  0
   -4.8051   -1.6599    0.0813 H   0  0  0  0  0  0  0  0  0  0  0  0
   -5.0450    1.0419    0.2407 H   0  0  0  0  0  0  0  0  0  0  0  0
   -5.9282    3.2348    0.4304 H   0  0  0  0  0  0  0  0  0  0  0  0
   -5.0117    4.4382   -0.4827 H   0  0  0  0  0  0  0  0  0  0  0  0
   -4.8768    4.3801    1.2712 H   0  0  0  0  0  0  0  0  0  0  0  0
   -2.3779    4.3779    0.2855 H   0  0  0  0  0  0  0  0  0  0  0  0
   -0.4285    2.8963    0.0920 H   0  0  0  0  0  0  0  0  0  0  0  0
    1.0435   -1.2424    1.3546 H   0  0  0  0  0  0  0  0  0  0  0  0
    3.4691   -1.0484    1.1947 H   0  0  0  0  0  0  0  0  0  0  0  0
    5.1925    1.3671   -1.2129 H   0  0  0  0  0  0  0  0  0  0  0  0
    3.0214    1.9183   -1.8594 H   0  0  0  0  0  0  0  0  0  0  0  0
    0.5839    1.6856   -1.7217 H   0  0  0  0  0  0  0  0  0  0  0  0
    0.0575   -2.6395   -0.3301 H   0  0  0  0  0  0  0  0  0  0  0  0
   -1.5978   -4.4535   -0.3115 H   0  0  0  0  0  0  0  0  0  0  0  0
  1  2  1  0  0  0  0
  2  3  4  0  0  0  0
  3  4  4  0  0  0  0
  4  5  1  0  0  0  0
  5  6  4  0  0  0  0
  6  7  4  0  0  0  0
  7  8  1  0  0  0  0
  7  9  4  0  0  0  0
  9 10  4  0  0  0  0
  5 11  4  0  0  0  0
 10 11  4  0  0  0  0
 11 12  1  0  0  0  0
 12 13  1  0  0  0  0
 13 14  4  0  0  0  0
 14 15  4  0  0  0  0
 15 16  4  0  0  0  0
 16 17  1  0  0  0  0
 17 18  2  0  0  0  0
 18 19  1  0  0  0  0
 18 20  1  0  0  0  0
 16 21  4  0  0  0  0
 13 22  4  0  0  0  0
 21 22  4  0  0  0  0
  4 23  4  0  0  0  0
 12 23  1  0  0  0  0
 23 24  4  0  0  0  0
  2 25  4  0  0  0  0
 24 25  4  0  0  0  0
  1 26  1  0  0  0  0
  1 27  1  0  0  0  0
  1 28  1  0  0  0  0
  3 29  1  0  0  0  0
  6 30  1  0  0  0  0
  8 31  1  0  0  0  0
  8 32  1  0  0  0  0
  8 33  1  0  0  0  0
  9 34  1  0  0  0  0
 10 35  1  0  0  0  0
 14 36  1  0  0  0  0
 15 37  1  0  0  0  0
 17 38  1  0  0  0  0
 21 39  1  0  0  0  0
 22 40  1  0  0  0  0
 24 41  1  0  0  0  0
 25 42  1  0  0  0  0
M  END
