
 OpenBabel02032211033D

 31 32  0  0  0  0  0  0  0  0999 V2000
    2.6813   -1.5090   -0.4697 C   0  0  0  0  0  0  0  0  0  0  0  0
    2.3223   -0.2428   -0.2214 C   0  0  0  0  0  0  0  0  0  0  0  0
    3.0627    0.9648   -0.6857 C   0  0  0  0  0  0  0  0  0  0  0  0
    4.2547    0.9005   -1.4338 C   0  0  0  0  0  0  0  0  0  0  0  0
    4.9194    2.0706   -1.8417 C   0  0  0  0  0  0  0  0  0  0  0  0
    6.1742    1.9255   -2.6333 C   0  0  0  0  0  0  0  0  0  0  0  0
    6.9022    2.9422   -3.1141 C   0  0  0  0  0  0  0  0  0  0  0  0
    4.3730    3.3212   -1.4919 C   0  0  0  0  0  0  0  0  0  0  0  0
    3.1826    3.4041   -0.7639 C   0  0  0  0  0  0  0  0  0  0  0  0
    2.6945    4.6339   -0.4507 O   0  0  0  0  0  0  0  0  0  0  0  0
    1.3918    4.9867   -0.2853 C   0  0  0  0  0  0  0  0  0  0  0  0
    1.0893    6.0792    0.5390 C   0  0  0  0  0  0  0  0  0  0  0  0
   -0.2378    6.4803    0.7254 C   0  0  0  0  0  0  0  0  0  0  0  0
   -1.2734    5.7988    0.0798 C   0  0  0  0  0  0  0  0  0  0  0  0
   -0.9833    4.7182   -0.7557 C   0  0  0  0  0  0  0  0  0  0  0  0
    0.3407    4.3127   -0.9415 C   0  0  0  0  0  0  0  0  0  0  0  0
    2.5397    2.2224   -0.3568 C   0  0  0  0  0  0  0  0  0  0  0  0
    2.0704   -2.3199   -0.0860 H   0  0  0  0  0  0  0  0  0  0  0  0
    3.5597   -1.7733   -1.0421 H   0  0  0  0  0  0  0  0  0  0  0  0
    1.4178   -0.0928    0.3627 H   0  0  0  0  0  0  0  0  0  0  0  0
    4.6825   -0.0528   -1.7058 H   0  0  0  0  0  0  0  0  0  0  0  0
    6.5303    0.9211   -2.8459 H   0  0  0  0  0  0  0  0  0  0  0  0
    6.6383    3.9806   -2.9665 H   0  0  0  0  0  0  0  0  0  0  0  0
    7.8014    2.7304   -3.6840 H   0  0  0  0  0  0  0  0  0  0  0  0
    4.8494    4.2456   -1.7824 H   0  0  0  0  0  0  0  0  0  0  0  0
    1.8846    6.6144    1.0422 H   0  0  0  0  0  0  0  0  0  0  0  0
   -0.4638    7.3206    1.3692 H   0  0  0  0  0  0  0  0  0  0  0  0
   -2.2997    6.1119    0.2221 H   0  0  0  0  0  0  0  0  0  0  0  0
   -1.7846    4.1963   -1.2627 H   0  0  0  0  0  0  0  0  0  0  0  0
    0.5397    3.4813   -1.6047 H   0  0  0  0  0  0  0  0  0  0  0  0
    1.6303    2.2808    0.2286 H   0  0  0  0  0  0  0  0  0  0  0  0
  1  2  2  0  0  0  0
  1 18  1  0  0  0  0
  1 19  1  0  0  0  0
  2  3  1  0  0  0  0
  2 20  1  0  0  0  0
  3  4  1  0  0  0  0
  3 17  2  0  0  0  0
  4  5  2  0  0  0  0
  4 21  1  0  0  0  0
  5  6  1  0  0  0  0
  5  8  1  0  0  0  0
  6  7  2  0  0  0  0
  6 22  1  0  0  0  0
  7 23  1  0  0  0  0
  7 24  1  0  0  0  0
  8  9  2  0  0  0  0
  8 25  1  0  0  0  0
  9 10  1  0  0  0  0
  9 17  1  0  0  0  0
 10 11  1  0  0  0  0
 11 12  1  0  0  0  0
 11 16  2  0  0  0  0
 12 13  2  0  0  0  0
 12 26  1  0  0  0  0
 13 14  1  0  0  0  0
 13 27  1  0  0  0  0
 14 15  2  0  0  0  0
 14 28  1  0  0  0  0
 15 16  1  0  0  0  0
 15 29  1  0  0  0  0
 16 30  1  0  0  0  0
 17 31  1  0  0  0  0
M  END
