
  xtb     02032211353D
 xtb: 6.4.1 (23d549d)
 53 53  0     0  0            999 V2000
    3.8789   -0.5779    2.5296 C   0  0  0  0  0  0  0  0  0  0  0  0
    2.6908   -0.0041    2.3593 C   0  0  0  0  0  0  0  0  0  0  0  0
    1.7333   -0.3791    1.3543 C   0  0  0  0  0  0  0  0  0  0  0  0
    1.9963   -1.7806    0.3605 S   0  0  0  0  0  0  0  0  0  0  0  0
    0.5020   -1.5139   -0.4900 C   0  0  0  0  0  0  0  0  0  0  0  0
    0.1983   -2.4232   -1.5751 C   0  0  0  0  0  0  0  0  0  0  0  0
   -0.3246   -2.0880   -2.7493 C   0  0  0  0  0  0  0  0  0  0  0  0
   -0.1723   -0.4234    0.0043 C   0  0  0  0  0  0  0  0  0  0  0  0
   -1.5736   -0.0621   -0.3866 C   0  0  0  0  0  0  0  0  0  0  0  0
   -2.5784   -0.4748    0.7011 C   0  0  0  0  0  0  0  0  0  0  0  0
   -2.6404   -1.9832    0.9422 C   0  0  0  0  0  0  0  0  0  0  0  0
   -3.1660   -2.8130   -0.2311 C   0  0  0  0  0  0  0  0  0  0  0  0
   -4.5815   -2.4626   -0.6926 C   0  0  0  0  0  0  0  0  0  0  0  0
   -5.6371   -2.6748    0.3862 C   0  0  0  0  0  0  0  0  0  0  0  0
    0.5414    0.2361    1.0428 C   0  0  0  0  0  0  0  0  0  0  0  0
    0.1185    1.5294    1.6745 C   0  0  0  0  0  0  0  0  0  0  0  0
    0.9643    2.7047    1.1625 C   0  0  0  0  0  0  0  0  0  0  0  0
    0.7792    2.9437   -0.3335 C   0  0  0  0  0  0  0  0  0  0  0  0
    1.6735    4.0705   -0.8433 C   0  0  0  0  0  0  0  0  0  0  0  0
    1.4993    4.3102   -2.3409 C   0  0  0  0  0  0  0  0  0  0  0  0
    2.4026    5.4290   -2.8448 C   0  0  0  0  0  0  0  0  0  0  0  0
    4.5523   -0.2638    3.3074 H   0  0  0  0  0  0  0  0  0  0  0  0
    4.2131   -1.3800    1.8922 H   0  0  0  0  0  0  0  0  0  0  0  0
    2.3855    0.8022    3.0130 H   0  0  0  0  0  0  0  0  0  0  0  0
    0.4963   -3.4502   -1.3994 H   0  0  0  0  0  0  0  0  0  0  0  0
   -0.5755   -1.0716   -3.0012 H   0  0  0  0  0  0  0  0  0  0  0  0
   -0.5028   -2.8271   -3.5114 H   0  0  0  0  0  0  0  0  0  0  0  0
   -1.8420   -0.5581   -1.3157 H   0  0  0  0  0  0  0  0  0  0  0  0
   -1.6461    1.0154   -0.5492 H   0  0  0  0  0  0  0  0  0  0  0  0
   -3.5661   -0.1049    0.4206 H   0  0  0  0  0  0  0  0  0  0  0  0
   -2.3058    0.0021    1.6451 H   0  0  0  0  0  0  0  0  0  0  0  0
   -3.2686   -2.1646    1.8166 H   0  0  0  0  0  0  0  0  0  0  0  0
   -1.6368   -2.3395    1.1869 H   0  0  0  0  0  0  0  0  0  0  0  0
   -3.1497   -3.8639    0.0696 H   0  0  0  0  0  0  0  0  0  0  0  0
   -2.4854   -2.7108   -1.0783 H   0  0  0  0  0  0  0  0  0  0  0  0
   -4.8224   -3.0954   -1.5507 H   0  0  0  0  0  0  0  0  0  0  0  0
   -4.6153   -1.4274   -1.0368 H   0  0  0  0  0  0  0  0  0  0  0  0
   -5.5866   -3.6909    0.7721 H   0  0  0  0  0  0  0  0  0  0  0  0
   -6.6325   -2.5127   -0.0219 H   0  0  0  0  0  0  0  0  0  0  0  0
   -5.4952   -1.9849    1.2140 H   0  0  0  0  0  0  0  0  0  0  0  0
    0.2229    1.4612    2.7604 H   0  0  0  0  0  0  0  0  0  0  0  0
   -0.9285    1.7319    1.4537 H   0  0  0  0  0  0  0  0  0  0  0  0
    2.0194    2.5066    1.3613 H   0  0  0  0  0  0  0  0  0  0  0  0
    0.6833    3.6074    1.7106 H   0  0  0  0  0  0  0  0  0  0  0  0
   -0.2654    3.1940   -0.5365 H   0  0  0  0  0  0  0  0  0  0  0  0
    1.0134    2.0252   -0.8768 H   0  0  0  0  0  0  0  0  0  0  0  0
    2.7174    3.8208   -0.6386 H   0  0  0  0  0  0  0  0  0  0  0  0
    1.4419    4.9909   -0.3012 H   0  0  0  0  0  0  0  0  0  0  0  0
    0.4569    4.5649   -2.5471 H   0  0  0  0  0  0  0  0  0  0  0  0
    1.7273    3.3883   -2.8809 H   0  0  0  0  0  0  0  0  0  0  0  0
    2.1781    6.3614   -2.3310 H   0  0  0  0  0  0  0  0  0  0  0  0
    2.2638    5.5833   -3.9124 H   0  0  0  0  0  0  0  0  0  0  0  0
    3.4475    5.1841   -2.6663 H   0  0  0  0  0  0  0  0  0  0  0  0
  1  2  2  0  0  0  0
  2  3  1  0  0  0  0
  3  4  1  0  0  0  0
  4  5  1  0  0  0  0
  5  6  1  0  0  0  0
  6  7  2  0  0  0  0
  5  8  2  0  0  0  0
  8  9  1  0  0  0  0
  9 10  1  0  0  0  0
 10 11  1  0  0  0  0
 11 12  1  0  0  0  0
 12 13  1  0  0  0  0
 13 14  1  0  0  0  0
  3 15  4  0  0  0  0
  8 15  4  0  0  0  0
 15 16  1  0  0  0  0
 16 17  1  0  0  0  0
 17 18  1  0  0  0  0
 18 19  1  0  0  0  0
 19 20  1  0  0  0  0
 20 21  1  0  0  0  0
  1 22  1  0  0  0  0
  1 23  1  0  0  0  0
  2 24  1  0  0  0  0
  6 25  1  0  0  0  0
  7 26  1  0  0  0  0
  7 27  1  0  0  0  0
  9 28  1  0  0  0  0
  9 29  1  0  0  0  0
 10 30  1  0  0  0  0
 10 31  1  0  0  0  0
 11 32  1  0  0  0  0
 11 33  1  0  0  0  0
 12 34  1  0  0  0  0
 12 35  1  0  0  0  0
 13 36  1  0  0  0  0
 13 37  1  0  0  0  0
 14 38  1  0  0  0  0
 14 39  1  0  0  0  0
 14 40  1  0  0  0  0
 16 41  1  0  0  0  0
 16 42  1  0  0  0  0
 17 43  1  0  0  0  0
 17 44  1  0  0  0  0
 18 45  1  0  0  0  0
 18 46  1  0  0  0  0
 19 47  1  0  0  0  0
 19 48  1  0  0  0  0
 20 49  1  0  0  0  0
 20 50  1  0  0  0  0
 21 51  1  0  0  0  0
 21 52  1  0  0  0  0
 21 53  1  0  0  0  0
M  END
