 xtb: 6.5.0 (unknown)
          08122213083D

 29  0  0     0  0            999 V2000
   -1.6693    4.6736    0.1884 C   0  0  0  0  0  0  0  0  0  0  0  0
   -0.5578    3.9599    0.0598 C   0  0  0  0  0  0  0  0  0  0  0  0
   -0.4534    2.5041    0.0599 C   0  0  0  0  0  0  0  0  0  0  0  0
   -1.5637    1.6650    0.0029 C   0  0  0  0  0  0  0  0  0  0  0  0
   -1.4363    0.2759    0.0061 C   0  0  0  0  0  0  0  0  0  0  0  0
   -2.6553   -0.5173   -0.0645 C   0  0  0  0  0  0  0  0  0  0  0  0
   -2.7790   -1.8351   -0.1189 C   0  0  0  0  0  0  0  0  0  0  0  0
   -1.8192   -2.7498   -0.1228 F   0  0  0  0  0  0  0  0  0  0  0  0
   -3.9585   -2.4494   -0.1837 F   0  0  0  0  0  0  0  0  0  0  0  0
   -0.1628   -0.2881    0.0749 C   0  0  0  0  0  0  0  0  0  0  0  0
    0.9538    0.5369    0.1290 C   0  0  0  0  0  0  0  0  0  0  0  0
    2.3309   -0.0215    0.1954 C   0  0  0  0  0  0  0  0  0  0  0  0
    3.3311    0.6532    0.1559 O   0  0  0  0  0  0  0  0  0  0  0  0
    2.3324   -1.3525    0.3191 O   0  0  0  0  0  0  0  0  0  0  0  0
    3.6036   -1.9988    0.3716 C   0  0  0  0  0  0  0  0  0  0  0  0
    4.1488   -2.2612   -1.0249 C   0  0  0  0  0  0  0  0  0  0  0  0
    0.8102    1.9189    0.1145 C   0  0  0  0  0  0  0  0  0  0  0  0
   -1.6450    5.7496    0.1822 H   0  0  0  0  0  0  0  0  0  0  0  0
   -2.6413    4.2275    0.3126 H   0  0  0  0  0  0  0  0  0  0  0  0
    0.3893    4.4741   -0.0427 H   0  0  0  0  0  0  0  0  0  0  0  0
   -2.5520    2.0946   -0.0563 H   0  0  0  0  0  0  0  0  0  0  0  0
   -3.5870    0.0296   -0.0793 H   0  0  0  0  0  0  0  0  0  0  0  0
   -0.0230   -1.3553    0.0843 H   0  0  0  0  0  0  0  0  0  0  0  0
    3.4244   -2.9336    0.9068 H   0  0  0  0  0  0  0  0  0  0  0  0
    4.2985   -1.3697    0.9379 H   0  0  0  0  0  0  0  0  0  0  0  0
    3.4362   -2.8449   -1.6027 H   0  0  0  0  0  0  0  0  0  0  0  0
    5.0838   -2.8093   -0.9540 H   0  0  0  0  0  0  0  0  0  0  0  0
    4.3305   -1.3185   -1.5353 H   0  0  0  0  0  0  0  0  0  0  0  0
    1.7006    2.5289    0.1535 H   0  0  0  0  0  0  0  0  0  0  0  0
M  END
