 xtb: 6.5.0 (unknown)
          08112218553D

 29  0  0     0  0            999 V2000
    0.2097    4.0632   -0.1172 C   0  0  0  0  0  0  0  0  0  0  0  0
   -0.6999    3.0967   -0.1236 C   0  0  0  0  0  0  0  0  0  0  0  0
   -0.4438    1.6607   -0.0658 C   0  0  0  0  0  0  0  0  0  0  0  0
   -1.5343    0.7914   -0.0322 C   0  0  0  0  0  0  0  0  0  0  0  0
   -1.3659   -0.5914    0.0252 C   0  0  0  0  0  0  0  0  0  0  0  0
   -2.4733   -1.5354    0.0632 C   0  0  0  0  0  0  0  0  0  0  0  0
   -3.7734   -1.2826    0.0513 C   0  0  0  0  0  0  0  0  0  0  0  0
   -4.3770   -0.1010    0.0015 F   0  0  0  0  0  0  0  0  0  0  0  0
   -4.7007   -2.2360    0.0900 F   0  0  0  0  0  0  0  0  0  0  0  0
   -0.0703   -1.1040    0.0475 C   0  0  0  0  0  0  0  0  0  0  0  0
    1.0260   -0.2507    0.0123 C   0  0  0  0  0  0  0  0  0  0  0  0
    2.3816   -0.8589    0.0371 C   0  0  0  0  0  0  0  0  0  0  0  0
    2.5885   -2.0475    0.0880 O   0  0  0  0  0  0  0  0  0  0  0  0
    3.3564    0.0547   -0.0040 O   0  0  0  0  0  0  0  0  0  0  0  0
    4.6927   -0.4487    0.0149 C   0  0  0  0  0  0  0  0  0  0  0  0
    5.6478    0.7256   -0.0812 C   0  0  0  0  0  0  0  0  0  0  0  0
    0.8429    1.1247   -0.0442 C   0  0  0  0  0  0  0  0  0  0  0  0
   -0.0782    5.0993   -0.1616 H   0  0  0  0  0  0  0  0  0  0  0  0
    1.2676    3.8711   -0.0663 H   0  0  0  0  0  0  0  0  0  0  0  0
   -1.7485    3.3629   -0.1719 H   0  0  0  0  0  0  0  0  0  0  0  0
   -2.5266    1.2134   -0.0505 H   0  0  0  0  0  0  0  0  0  0  0  0
   -2.2080   -2.5817    0.1071 H   0  0  0  0  0  0  0  0  0  0  0  0
    0.1067   -2.1680    0.0914 H   0  0  0  0  0  0  0  0  0  0  0  0
    4.8213   -1.1400   -0.8258 H   0  0  0  0  0  0  0  0  0  0  0  0
    4.8439   -1.0129    0.9423 H   0  0  0  0  0  0  0  0  0  0  0  0
    5.4753    1.2744   -1.0032 H   0  0  0  0  0  0  0  0  0  0  0  0
    6.6719    0.3643   -0.0695 H   0  0  0  0  0  0  0  0  0  0  0  0
    5.4993    1.3994    0.7584 H   0  0  0  0  0  0  0  0  0  0  0  0
    1.7081    1.7656   -0.0731 H   0  0  0  0  0  0  0  0  0  0  0  0
M  END
