
  xtb     02032211353D
 xtb: 6.4.1 (23d549d)
 22 22  0     0  0            999 V2000
    3.8421    1.4186   -0.0965 C   0  0  0  0  0  0  0  0  0  0  0  0
    3.3227    0.1968   -0.1138 C   0  0  0  0  0  0  0  0  0  0  0  0
    1.9072   -0.1369   -0.0337 C   0  0  0  0  0  0  0  0  0  0  0  0
    0.8837    0.8090    0.0533 C   0  0  0  0  0  0  0  0  0  0  0  0
   -0.4378    0.3889    0.1003 C   0  0  0  0  0  0  0  0  0  0  0  0
   -1.4867    1.4572    0.1148 C   0  0  0  0  0  0  0  0  0  0  0  0
   -1.3202    2.5177    0.6490 O   0  0  0  0  0  0  0  0  0  0  0  0
   -2.6243    1.1872   -0.5490 O   0  0  0  0  0  0  0  0  0  0  0  0
   -0.7207   -0.9874    0.1050 C   0  0  0  0  0  0  0  0  0  0  0  0
   -2.0710   -1.5307    0.2480 C   0  0  0  0  0  0  0  0  0  0  0  0
   -2.4994   -2.6282   -0.3635 C   0  0  0  0  0  0  0  0  0  0  0  0
    0.3850   -1.8428    0.0343 C   0  0  0  0  0  0  0  0  0  0  0  0
    1.6312   -1.4435   -0.0478 N   0  0  0  0  0  0  0  0  0  0  0  0
    4.9057    1.5722   -0.1578 H   0  0  0  0  0  0  0  0  0  0  0  0
    3.2406    2.3082   -0.0184 H   0  0  0  0  0  0  0  0  0  0  0  0
    3.9621   -0.6720   -0.1892 H   0  0  0  0  0  0  0  0  0  0  0  0
    1.0890    1.8670    0.0694 H   0  0  0  0  0  0  0  0  0  0  0  0
   -2.6318    0.2972   -0.9313 H   0  0  0  0  0  0  0  0  0  0  0  0
   -2.7291   -0.9956    0.9231 H   0  0  0  0  0  0  0  0  0  0  0  0
   -1.8783   -3.1761   -1.0526 H   0  0  0  0  0  0  0  0  0  0  0  0
   -3.4937   -3.0087   -0.2063 H   0  0  0  0  0  0  0  0  0  0  0  0
    0.2385   -2.9149    0.0629 H   0  0  0  0  0  0  0  0  0  0  0  0
  1  2  2  0  0  0  0
  2  3  1  0  0  0  0
  3  4  4  0  0  0  0
  4  5  4  0  0  0  0
  5  6  1  0  0  0  0
  6  7  2  0  0  0  0
  6  8  1  0  0  0  0
  5  9  4  0  0  0  0
  9 10  1  0  0  0  0
 10 11  2  0  0  0  0
  9 12  4  0  0  0  0
  3 13  4  0  0  0  0
 12 13  4  0  0  0  0
  1 14  1  0  0  0  0
  1 15  1  0  0  0  0
  2 16  1  0  0  0  0
  4 17  1  0  0  0  0
  8 18  1  0  0  0  0
 10 19  1  0  0  0  0
 11 20  1  0  0  0  0
 11 21  1  0  0  0  0
 12 22  1  0  0  0  0
M  END
