
 OpenBabel02012214033D

 45 45  0  0  0  0  0  0  0  0999 V2000
    0.9872   -0.0822    0.0001 C   0  0  0  0  0  0  0  0  0  0  0  0
    2.5060   -0.0753   -0.0160 C   0  0  0  0  0  0  0  0  0  0  0  0
    3.0428   -0.1099   -1.4449 C   0  0  0  0  0  0  0  0  0  0  0  0
    4.5696   -0.1032   -1.4597 C   0  0  0  0  0  0  0  0  0  0  0  0
    5.1026   -0.1396   -2.8896 C   0  0  0  0  0  0  0  0  0  0  0  0
    6.6289   -0.1341   -2.9014 C   0  0  0  0  0  0  0  0  0  0  0  0
    7.1636   -0.1689   -4.3291 C   0  0  0  0  0  0  0  0  0  0  0  0
    8.6900   -0.1652   -4.3394 C   0  0  0  0  0  0  0  0  0  0  0  0
    9.2182   -0.1979   -5.7683 C   0  0  0  0  0  0  0  0  0  0  0  0
   10.7465   -0.1971   -5.7981 C   0  0  0  0  0  0  0  0  0  0  0  0
   11.2563   -0.2334   -7.2096 C   0  0  0  0  0  0  0  0  0  0  0  0
   11.5252    0.9415   -7.9838 C   0  0  0  0  0  0  0  0  0  0  0  0
   11.9286    0.6544   -9.2687 C   0  0  0  0  0  0  0  0  0  0  0  0
   12.2564    1.6042  -10.3673 C   0  0  0  0  0  0  0  0  0  0  0  0
   12.0194   -1.0284   -9.5354 S   0  0  0  0  0  0  0  0  0  0  0  0
   11.4897   -1.3841   -7.9482 C   0  0  0  0  0  0  0  0  0  0  0  0
   11.3138   -2.8048   -7.5229 C   0  0  0  0  0  0  0  0  0  0  0  0
    0.6187   -0.0569    1.0304 H   0  0  0  0  0  0  0  0  0  0  0  0
    0.5952   -0.9843   -0.4804 H   0  0  0  0  0  0  0  0  0  0  0  0
    0.5866    0.7896   -0.5270 H   0  0  0  0  0  0  0  0  0  0  0  0
    2.8782   -0.9418    0.5429 H   0  0  0  0  0  0  0  0  0  0  0  0
    2.8697    0.8228    0.4969 H   0  0  0  0  0  0  0  0  0  0  0  0
    2.6662    0.7567   -2.0020 H   0  0  0  0  0  0  0  0  0  0  0  0
    2.6744   -1.0077   -1.9561 H   0  0  0  0  0  0  0  0  0  0  0  0
    4.9484   -0.9692   -0.9035 H   0  0  0  0  0  0  0  0  0  0  0  0
    4.9402    0.7953   -0.9513 H   0  0  0  0  0  0  0  0  0  0  0  0
    4.7264    0.7273   -3.4466 H   0  0  0  0  0  0  0  0  0  0  0  0
    4.7331   -1.0373   -3.3994 H   0  0  0  0  0  0  0  0  0  0  0  0
    7.0059   -1.0016   -2.3455 H   0  0  0  0  0  0  0  0  0  0  0  0
    6.9994    0.7633   -2.3909 H   0  0  0  0  0  0  0  0  0  0  0  0
    6.7883    0.6988   -4.8857 H   0  0  0  0  0  0  0  0  0  0  0  0
    6.7926   -1.0654   -4.8414 H   0  0  0  0  0  0  0  0  0  0  0  0
    9.0650   -1.0348   -3.7859 H   0  0  0  0  0  0  0  0  0  0  0  0
    9.0613    0.7307   -3.8275 H   0  0  0  0  0  0  0  0  0  0  0  0
    8.8359    0.6694   -6.3219 H   0  0  0  0  0  0  0  0  0  0  0  0
    8.8346   -1.0897   -6.2800 H   0  0  0  0  0  0  0  0  0  0  0  0
   11.1352   -1.0550   -5.2361 H   0  0  0  0  0  0  0  0  0  0  0  0
   11.1275    0.7006   -5.2954 H   0  0  0  0  0  0  0  0  0  0  0  0
   11.4019    1.9528   -7.6139 H   0  0  0  0  0  0  0  0  0  0  0  0
   12.1807    2.6407  -10.0215 H   0  0  0  0  0  0  0  0  0  0  0  0
   11.5611    1.4805  -11.2039 H   0  0  0  0  0  0  0  0  0  0  0  0
   13.2763    1.4452  -10.7302 H   0  0  0  0  0  0  0  0  0  0  0  0
   11.5656   -3.5154   -8.3168 H   0  0  0  0  0  0  0  0  0  0  0  0
   10.2743   -2.9863   -7.2319 H   0  0  0  0  0  0  0  0  0  0  0  0
   11.9535   -3.0243   -6.6617 H   0  0  0  0  0  0  0  0  0  0  0  0
  1  2  1  0  0  0  0
  1 18  1  0  0  0  0
  1 19  1  0  0  0  0
  1 20  1  0  0  0  0
  2  3  1  0  0  0  0
  2 21  1  0  0  0  0
  2 22  1  0  0  0  0
  3  4  1  0  0  0  0
  3 23  1  0  0  0  0
  3 24  1  0  0  0  0
  4  5  1  0  0  0  0
  4 25  1  0  0  0  0
  4 26  1  0  0  0  0
  5  6  1  0  0  0  0
  5 27  1  0  0  0  0
  5 28  1  0  0  0  0
  6  7  1  0  0  0  0
  6 29  1  0  0  0  0
  6 30  1  0  0  0  0
  7  8  1  0  0  0  0
  7 31  1  0  0  0  0
  7 32  1  0  0  0  0
  8  9  1  0  0  0  0
  8 33  1  0  0  0  0
  8 34  1  0  0  0  0
  9 10  1  0  0  0  0
  9 35  1  0  0  0  0
  9 36  1  0  0  0  0
 10 11  1  0  0  0  0
 10 37  1  0  0  0  0
 10 38  1  0  0  0  0
 11 12  1  0  0  0  0
 11 16  2  0  0  0  0
 12 13  2  0  0  0  0
 12 39  1  0  0  0  0
 13 14  1  0  0  0  0
 13 15  1  0  0  0  0
 14 40  1  0  0  0  0
 14 41  1  0  0  0  0
 14 42  1  0  0  0  0
 15 16  1  0  0  0  0
 16 17  1  0  0  0  0
 17 43  1  0  0  0  0
 17 44  1  0  0  0  0
 17 45  1  0  0  0  0
M  END
