
 OpenBabel02032211203D

 23 23  0  0  0  0  0  0  0  0999 V2000
    2.8234   -0.0633   -1.1809 C   0  0  0  0  0  0  0  0  0  0  0  0
    2.4309    0.0475    0.0970 C   0  0  0  0  0  0  0  0  0  0  0  0
    3.1441    0.8332    1.1122 C   0  0  0  0  0  0  0  0  0  0  0  0
    2.6606    0.9099    2.4070 C   0  0  0  0  0  0  0  0  0  0  0  0
    3.3718    1.6608    3.3399 C   0  0  0  0  0  0  0  0  0  0  0  0
    4.5493    2.3279    2.9656 C   0  0  0  0  0  0  0  0  0  0  0  0
    5.2896    3.1028    3.9994 C   0  0  0  0  0  0  0  0  0  0  0  0
    4.5476    3.6812    4.9971 N   0  0  0  0  0  0  0  0  0  0  0  0
    6.5058    3.2310    4.0007 O   0  0  0  0  0  0  0  0  0  0  0  0
    4.9867    2.1905    1.6411 C   0  0  0  0  0  0  0  0  0  0  0  0
    6.2040    2.8132    1.0799 C   0  0  0  0  0  0  0  0  0  0  0  0
    6.6318    2.6381   -0.1810 C   0  0  0  0  0  0  0  0  0  0  0  0
    4.2786    1.4582    0.7324 N   0  0  0  0  0  0  0  0  0  0  0  0
    2.2590   -0.6609   -1.8879 H   0  0  0  0  0  0  0  0  0  0  0  0
    3.7151    0.4371   -1.5484 H   0  0  0  0  0  0  0  0  0  0  0  0
    1.5334   -0.4706    0.4192 H   0  0  0  0  0  0  0  0  0  0  0  0
    1.7540    0.3910    2.7015 H   0  0  0  0  0  0  0  0  0  0  0  0
    3.0110    1.6892    4.3641 H   0  0  0  0  0  0  0  0  0  0  0  0
    3.5399    3.7409    4.9943 H   0  0  0  0  0  0  0  0  0  0  0  0
    5.0527    4.2399    5.6738 H   0  0  0  0  0  0  0  0  0  0  0  0
    6.7969    3.4481    1.7305 H   0  0  0  0  0  0  0  0  0  0  0  0
    6.0966    2.0124   -0.8875 H   0  0  0  0  0  0  0  0  0  0  0  0
    7.5425    3.1134   -0.5300 H   0  0  0  0  0  0  0  0  0  0  0  0
  1  2  2  0  0  0  0
  1 14  1  0  0  0  0
  1 15  1  0  0  0  0
  2  3  1  0  0  0  0
  2 16  1  0  0  0  0
  3  4  1  0  0  0  0
  3 13  2  0  0  0  0
  4  5  2  0  0  0  0
  4 17  1  0  0  0  0
  5  6  1  0  0  0  0
  5 18  1  0  0  0  0
  6  7  1  0  0  0  0
  6 10  2  0  0  0  0
  7  8  1  0  0  0  0
  7  9  2  0  0  0  0
  8 19  1  0  0  0  0
  8 20  1  0  0  0  0
 10 11  1  0  0  0  0
 10 13  1  0  0  0  0
 11 12  2  0  0  0  0
 11 21  1  0  0  0  0
 12 22  1  0  0  0  0
 12 23  1  0  0  0  0
M  END
