
 OpenBabel02012214153D

 26 26  0  0  0  0  0  0  0  0999 V2000
    1.1643   -2.4410   -1.0254 C   0  0  0  0  0  0  0  0  0  0  0  0
    2.5221   -2.2106   -0.9529 O   0  0  0  0  0  0  0  0  0  0  0  0
    3.1063   -1.3671   -0.0596 C   0  0  0  0  0  0  0  0  0  0  0  0
    2.3996   -0.7555    0.7245 O   0  0  0  0  0  0  0  0  0  0  0  0
    4.6027   -1.2160   -0.0604 C   0  0  0  0  0  0  0  0  0  0  0  0
    5.2939   -1.8904   -1.0879 C   0  0  0  0  0  0  0  0  0  0  0  0
    6.6829   -1.8306   -1.2043 C   0  0  0  0  0  0  0  0  0  0  0  0
    7.3866   -2.5574   -2.3171 C   0  0  0  0  0  0  0  0  0  0  0  0
    7.4222   -1.0916   -0.2820 C   0  0  0  0  0  0  0  0  0  0  0  0
    8.7752   -1.0475   -0.4080 F   0  0  0  0  0  0  0  0  0  0  0  0
    6.7823   -0.4034    0.7630 C   0  0  0  0  0  0  0  0  0  0  0  0
    7.6279    0.3770    1.7433 C   0  0  0  0  0  0  0  0  0  0  0  0
    5.3625   -0.4525    0.8895 C   0  0  0  0  0  0  0  0  0  0  0  0
    4.7466    0.2547    1.9712 N   0  0  0  0  0  0  0  0  0  0  0  0
    0.9634   -3.1873   -1.8211 H   0  0  0  0  0  0  0  0  0  0  0  0
    0.6288   -1.4993   -1.2713 H   0  0  0  0  0  0  0  0  0  0  0  0
    0.7926   -2.8427   -0.0582 H   0  0  0  0  0  0  0  0  0  0  0  0
    4.7486   -2.4724   -1.8207 H   0  0  0  0  0  0  0  0  0  0  0  0
    6.6722   -3.0991   -2.9729 H   0  0  0  0  0  0  0  0  0  0  0  0
    8.0972   -3.2963   -1.8905 H   0  0  0  0  0  0  0  0  0  0  0  0
    7.9483   -1.8306   -2.9409 H   0  0  0  0  0  0  0  0  0  0  0  0
    8.7126    0.3174    1.5196 H   0  0  0  0  0  0  0  0  0  0  0  0
    7.4806   -0.0249    2.7680 H   0  0  0  0  0  0  0  0  0  0  0  0
    7.3427    1.4498    1.7171 H   0  0  0  0  0  0  0  0  0  0  0  0
    5.2992    0.8014    2.6433 H   0  0  0  0  0  0  0  0  0  0  0  0
    3.7427    0.2556    2.1603 H   0  0  0  0  0  0  0  0  0  0  0  0
  1  2  1  0  0  0  0
  1 15  1  0  0  0  0
  1 16  1  0  0  0  0
  1 17  1  0  0  0  0
  2  3  1  0  0  0  0
  3  4  2  0  0  0  0
  3  5  1  0  0  0  0
  5  6  1  0  0  0  0
  5 13  2  0  0  0  0
  6  7  2  0  0  0  0
  6 18  1  0  0  0  0
  7  8  1  0  0  0  0
  7  9  1  0  0  0  0
  8 19  1  0  0  0  0
  8 20  1  0  0  0  0
  8 21  1  0  0  0  0
  9 10  1  0  0  0  0
  9 11  2  0  0  0  0
 11 12  1  0  0  0  0
 11 13  1  0  0  0  0
 12 22  1  0  0  0  0
 12 23  1  0  0  0  0
 12 24  1  0  0  0  0
 13 14  1  0  0  0  0
 14 25  1  0  0  0  0
 14 26  1  0  0  0  0
M  END
