
 OpenBabel02012213573D

 54 54  0  0  0  0  0  0  0  0999 V2000
    5.4526    2.6646   -2.4023 C   0  0  0  0  0  0  0  0  0  0  0  0
    6.3060    1.7450   -1.5323 C   0  0  0  0  0  0  0  0  0  0  0  0
    5.5750    0.4293   -1.2456 C   0  0  0  0  0  0  0  0  0  0  0  0
    6.4279   -0.5094   -0.3815 C   0  0  0  0  0  0  0  0  0  0  0  0
    5.6743   -1.8191   -0.1127 C   0  0  0  0  0  0  0  0  0  0  0  0
    6.5102   -2.8338    0.6858 C   0  0  0  0  0  0  0  0  0  0  0  0
    6.9957   -2.3728    2.0562 C   0  0  0  0  0  0  0  0  0  0  0  0
    8.3829   -2.2157    2.2380 C   0  0  0  0  0  0  0  0  0  0  0  0
    8.9305   -1.8383    3.4748 C   0  0  0  0  0  0  0  0  0  0  0  0
   10.4312   -1.7270    3.5969 C   0  0  0  0  0  0  0  0  0  0  0  0
    8.0683   -1.6154    4.5740 C   0  0  0  0  0  0  0  0  0  0  0  0
    8.5759   -1.2173    5.9467 C   0  0  0  0  0  0  0  0  0  0  0  0
    8.8904    0.2838    6.0179 C   0  0  0  0  0  0  0  0  0  0  0  0
    9.3676    0.6794    7.4204 C   0  0  0  0  0  0  0  0  0  0  0  0
    9.6004    2.1919    7.5115 C   0  0  0  0  0  0  0  0  0  0  0  0
   10.0826    2.5918    8.9103 C   0  0  0  0  0  0  0  0  0  0  0  0
   10.2863    4.1009    9.0092 C   0  0  0  0  0  0  0  0  0  0  0  0
    6.6861   -1.7875    4.4019 C   0  0  0  0  0  0  0  0  0  0  0  0
    6.1348   -2.1540    3.1636 C   0  0  0  0  0  0  0  0  0  0  0  0
    4.6390   -2.3285    3.0824 C   0  0  0  0  0  0  0  0  0  0  0  0
    6.0007    3.6103   -2.5964 H   0  0  0  0  0  0  0  0  0  0  0  0
    4.4971    2.9057   -1.8888 H   0  0  0  0  0  0  0  0  0  0  0  0
    5.2294    2.1771   -3.3757 H   0  0  0  0  0  0  0  0  0  0  0  0
    6.5334    2.2625   -0.5750 H   0  0  0  0  0  0  0  0  0  0  0  0
    7.2608    1.5351   -2.0617 H   0  0  0  0  0  0  0  0  0  0  0  0
    5.3416   -0.0746   -2.2099 H   0  0  0  0  0  0  0  0  0  0  0  0
    4.6205    0.6491   -0.7176 H   0  0  0  0  0  0  0  0  0  0  0  0
    6.6634   -0.0106    0.5841 H   0  0  0  0  0  0  0  0  0  0  0  0
    7.3796   -0.7334   -0.9119 H   0  0  0  0  0  0  0  0  0  0  0  0
    5.4212   -2.2922   -1.0870 H   0  0  0  0  0  0  0  0  0  0  0  0
    4.7182   -1.5974    0.3867 H   0  0  0  0  0  0  0  0  0  0  0  0
    7.3831   -3.0849    0.0445 H   0  0  0  0  0  0  0  0  0  0  0  0
    5.9326   -3.7749    0.8102 H   0  0  0  0  0  0  0  0  0  0  0  0
    9.0502   -2.3995    1.4046 H   0  0  0  0  0  0  0  0  0  0  0  0
   10.9412   -1.9743    2.6418 H   0  0  0  0  0  0  0  0  0  0  0  0
   10.7989   -2.4400    4.3645 H   0  0  0  0  0  0  0  0  0  0  0  0
   10.7361   -0.7014    3.8705 H   0  0  0  0  0  0  0  0  0  0  0  0
    9.4445   -1.8468    6.2343 H   0  0  0  0  0  0  0  0  0  0  0  0
    7.7852   -1.4106    6.7053 H   0  0  0  0  0  0  0  0  0  0  0  0
    7.9621    0.8475    5.7758 H   0  0  0  0  0  0  0  0  0  0  0  0
    9.6672    0.5666    5.2825 H   0  0  0  0  0  0  0  0  0  0  0  0
   10.3130    0.1397    7.6507 H   0  0  0  0  0  0  0  0  0  0  0  0
    8.5979    0.3881    8.1690 H   0  0  0  0  0  0  0  0  0  0  0  0
    8.6460    2.7192    7.2891 H   0  0  0  0  0  0  0  0  0  0  0  0
   10.3613    2.4963    6.7594 H   0  0  0  0  0  0  0  0  0  0  0  0
   11.0450    2.0815    9.1328 H   0  0  0  0  0  0  0  0  0  0  0  0
    9.3307    2.2829    9.6690 H   0  0  0  0  0  0  0  0  0  0  0  0
   11.0458    4.4377    8.2719 H   0  0  0  0  0  0  0  0  0  0  0  0
   10.6380    4.3633   10.0290 H   0  0  0  0  0  0  0  0  0  0  0  0
    9.3294    4.6315    8.8159 H   0  0  0  0  0  0  0  0  0  0  0  0
    6.0275   -1.6256    5.2479 H   0  0  0  0  0  0  0  0  0  0  0  0
    4.1542   -2.1853    4.0716 H   0  0  0  0  0  0  0  0  0  0  0  0
    4.3913   -3.3506    2.7292 H   0  0  0  0  0  0  0  0  0  0  0  0
    4.1918   -1.5692    2.4193 H   0  0  0  0  0  0  0  0  0  0  0  0
  1  2  1  0  0  0  0
  1 21  1  0  0  0  0
  1 22  1  0  0  0  0
  1 23  1  0  0  0  0
  2  3  1  0  0  0  0
  2 24  1  0  0  0  0
  2 25  1  0  0  0  0
  3  4  1  0  0  0  0
  3 26  1  0  0  0  0
  3 27  1  0  0  0  0
  4  5  1  0  0  0  0
  4 28  1  0  0  0  0
  4 29  1  0  0  0  0
  5  6  1  0  0  0  0
  5 30  1  0  0  0  0
  5 31  1  0  0  0  0
  6  7  1  0  0  0  0
  6 32  1  0  0  0  0
  6 33  1  0  0  0  0
  7  8  1  0  0  0  0
  7 19  2  0  0  0  0
  8  9  2  0  0  0  0
  8 34  1  0  0  0  0
  9 10  1  0  0  0  0
  9 11  1  0  0  0  0
 10 35  1  0  0  0  0
 10 36  1  0  0  0  0
 10 37  1  0  0  0  0
 11 12  1  0  0  0  0
 11 18  2  0  0  0  0
 12 13  1  0  0  0  0
 12 38  1  0  0  0  0
 12 39  1  0  0  0  0
 13 14  1  0  0  0  0
 13 40  1  0  0  0  0
 13 41  1  0  0  0  0
 14 15  1  0  0  0  0
 14 42  1  0  0  0  0
 14 43  1  0  0  0  0
 15 16  1  0  0  0  0
 15 44  1  0  0  0  0
 15 45  1  0  0  0  0
 16 17  1  0  0  0  0
 16 46  1  0  0  0  0
 16 47  1  0  0  0  0
 17 48  1  0  0  0  0
 17 49  1  0  0  0  0
 17 50  1  0  0  0  0
 18 19  1  0  0  0  0
 18 51  1  0  0  0  0
 19 20  1  0  0  0  0
 20 52  1  0  0  0  0
 20 53  1  0  0  0  0
 20 54  1  0  0  0  0
M  END
