
 OpenBabel02032211213D

 17 17  0  0  0  0  0  0  0  0999 V2000
    1.2984    0.6984    0.5467 C   0  0  0  0  0  0  0  0  0  0  0  0
    2.3955    0.1754   -0.0120 C   0  0  0  0  0  0  0  0  0  0  0  0
    3.2301    0.9096   -0.9934 C   0  0  0  0  0  0  0  0  0  0  0  0
    3.0261    2.1917   -1.4761 C   0  0  0  0  0  0  0  0  0  0  0  0
    3.9766    2.4962   -2.3307 O   0  0  0  0  0  0  0  0  0  0  0  0
    4.8019    1.4795   -2.4394 C   0  0  0  0  0  0  0  0  0  0  0  0
    4.3785    0.4490   -1.6164 C   0  0  0  0  0  0  0  0  0  0  0  0
    5.0181   -0.8765   -1.4344 C   0  0  0  0  0  0  0  0  0  0  0  0
    6.1326   -1.2418   -2.0775 C   0  0  0  0  0  0  0  0  0  0  0  0
    0.7265    0.1133    1.2598 H   0  0  0  0  0  0  0  0  0  0  0  0
    0.9540    1.6987    0.3115 H   0  0  0  0  0  0  0  0  0  0  0  0
    2.6771   -0.8318    0.2740 H   0  0  0  0  0  0  0  0  0  0  0  0
    2.2212    2.8635   -1.2120 H   0  0  0  0  0  0  0  0  0  0  0  0
    5.6706    1.4800   -3.0830 H   0  0  0  0  0  0  0  0  0  0  0  0
    4.5717   -1.5905   -0.7514 H   0  0  0  0  0  0  0  0  0  0  0  0
    6.6364   -0.5831   -2.7754 H   0  0  0  0  0  0  0  0  0  0  0  0
    6.5560   -2.2259   -1.9041 H   0  0  0  0  0  0  0  0  0  0  0  0
  1  2  2  0  0  0  0
  1 10  1  0  0  0  0
  1 11  1  0  0  0  0
  2  3  1  0  0  0  0
  2 12  1  0  0  0  0
  3  4  2  0  0  0  0
  3  7  1  0  0  0  0
  4  5  1  0  0  0  0
  4 13  1  0  0  0  0
  5  6  1  0  0  0  0
  6  7  2  0  0  0  0
  6 14  1  0  0  0  0
  7  8  1  0  0  0  0
  8  9  2  0  0  0  0
  8 15  1  0  0  0  0
  9 16  1  0  0  0  0
  9 17  1  0  0  0  0
M  END
