
  xtb     02032211213D
 xtb: 6.4.1 (23d549d)
 17 17  0     0  0            999 V2000
    1.0722    0.3167    0.3963 c   0  0  0  0  0  0  0  0  0  0  0  0
    2.1779   -0.1477   -0.1736 c   0  0  0  0  0  0  0  0  0  0  0  0
    2.9694    0.5599   -1.1563 c   0  0  0  0  0  0  0  0  0  0  0  0
    2.7490    1.8066   -1.6794 c   0  0  0  0  0  0  0  0  0  0  0  0
    3.6947    2.1317   -2.5734 o   0  0  0  0  0  0  0  0  0  0  0  0
    4.5452    1.0970   -2.6452 c   0  0  0  0  0  0  0  0  0  0  0  0
    4.1680    0.0863   -1.8010 c   0  0  0  0  0  0  0  0  0  0  0  0
    4.8217   -1.1864   -1.5861 c   0  0  0  0  0  0  0  0  0  0  0  0
    5.8935   -1.6159   -2.2413 c   0  0  0  0  0  0  0  0  0  0  0  0
    0.5285   -0.2634    1.1216 h   0  0  0  0  0  0  0  0  0  0  0  0
    0.6711    1.2876    0.1619 h   0  0  0  0  0  0  0  0  0  0  0  0
    2.5394   -1.1314    0.0954 h   0  0  0  0  0  0  0  0  0  0  0  0
    1.9807    2.5317   -1.4997 h   0  0  0  0  0  0  0  0  0  0  0  0
    5.3723    1.1938   -3.3195 h   0  0  0  0  0  0  0  0  0  0  0  0
    4.3787   -1.8155   -0.8258 h   0  0  0  0  0  0  0  0  0  0  0  0
    6.3687   -1.0296   -3.0085 h   0  0  0  0  0  0  0  0  0  0  0  0
    6.3328   -2.5755   -2.0306 h   0  0  0  0  0  0  0  0  0  0  0  0
  1  2  2  0  0  0  0
  2  3  1  0  0  0  0
  3  4  2  0  0  0  0
  4  5  1  0  0  0  0
  5  6  1  0  0  0  0
  3  7  1  0  0  0  0
  6  7  2  0  0  0  0
  7  8  1  0  0  0  0
  8  9  2  0  0  0  0
  1 10  1  0  0  0  0
  1 11  1  0  0  0  0
  2 12  1  0  0  0  0
  4 13  1  0  0  0  0
  6 14  1  0  0  0  0
  8 15  1  0  0  0  0
  9 16  1  0  0  0  0
  9 17  1  0  0  0  0
M  END
