
  xtb     02012213583D
 xtb: 6.4.1 (23d549d)
 18 18  0     0  0            999 V2000
    1.0613   -0.0116   -0.0610 c   0  0  0  0  0  0  0  0  0  0  0  0
    2.5572    0.0378   -0.0578 c   0  0  0  0  0  0  0  0  0  0  0  0
    3.2385    1.2454   -0.0572 c   0  0  0  0  0  0  0  0  0  0  0  0
    4.6218    1.2585   -0.0542 c   0  0  0  0  0  0  0  0  0  0  0  0
    5.2459    2.4566   -0.0537 f   0  0  0  0  0  0  0  0  0  0  0  0
    5.3927    0.1043   -0.0516 c   0  0  0  0  0  0  0  0  0  0  0  0
    6.8884    0.1172   -0.0481 c   0  0  0  0  0  0  0  0  0  0  0  0
    4.6732   -1.0870   -0.0524 c   0  0  0  0  0  0  0  0  0  0  0  0
    5.3645   -2.2473   -0.0500 f   0  0  0  0  0  0  0  0  0  0  0  0
    3.2951   -1.1411   -0.0554 c   0  0  0  0  0  0  0  0  0  0  0  0
    0.6386    0.9889   -0.0620 h   0  0  0  0  0  0  0  0  0  0  0  0
    0.6994   -0.5433    0.8176 h   0  0  0  0  0  0  0  0  0  0  0  0
    0.7032   -0.5434   -0.9411 h   0  0  0  0  0  0  0  0  0  0  0  0
    2.7081    2.1847   -0.0591 h   0  0  0  0  0  0  0  0  0  0  0  0
    7.2629    1.1366   -0.0483 h   0  0  0  0  0  0  0  0  0  0  0  0
    7.2690   -0.4038   -0.9259 h   0  0  0  0  0  0  0  0  0  0  0  0
    7.2649   -0.4019    0.8325 h   0  0  0  0  0  0  0  0  0  0  0  0
    2.8043   -2.1016   -0.0558 h   0  0  0  0  0  0  0  0  0  0  0  0
  1  2  1  0  0  0  0
  2  3  4  0  0  0  0
  3  4  4  0  0  0  0
  4  5  1  0  0  0  0
  4  6  4  0  0  0  0
  6  7  1  0  0  0  0
  6  8  4  0  0  0  0
  8  9  1  0  0  0  0
  2 10  4  0  0  0  0
  8 10  4  0  0  0  0
  1 11  1  0  0  0  0
  1 12  1  0  0  0  0
  1 13  1  0  0  0  0
  3 14  1  0  0  0  0
  7 15  1  0  0  0  0
  7 16  1  0  0  0  0
  7 17  1  0  0  0  0
 10 18  1  0  0  0  0
M  END
