
  xtb     02032211353D
 xtb: 6.4.1 (23d549d)
 27 27  0     0  0            999 V2000
   -4.3261   -0.9468   -0.0764 C   0  0  0  0  0  0  0  0  0  0  0  0
   -3.5499    0.0690    0.2792 C   0  0  0  0  0  0  0  0  0  0  0  0
   -2.1044    0.1239    0.0870 C   0  0  0  0  0  0  0  0  0  0  0  0
   -1.3156   -1.0132    0.1044 C   0  0  0  0  0  0  0  0  0  0  0  0
    0.0730   -0.9429   -0.0413 C   0  0  0  0  0  0  0  0  0  0  0  0
    0.9098   -2.1361   -0.0626 C   0  0  0  0  0  0  0  0  0  0  0  0
    0.6144   -3.2848    0.5322 C   0  0  0  0  0  0  0  0  0  0  0  0
    0.6141    0.3394   -0.1926 C   0  0  0  0  0  0  0  0  0  0  0  0
    2.0869    0.5748   -0.3131 C   0  0  0  0  0  0  0  0  0  0  0  0
    2.6210    1.1978   -1.1914 O   0  0  0  0  0  0  0  0  0  0  0  0
    2.7514    0.0037    0.7023 O   0  0  0  0  0  0  0  0  0  0  0  0
    4.1607    0.1804    0.6991 C   0  0  0  0  0  0  0  0  0  0  0  0
   -0.1218    1.4393   -0.2425 N   0  0  0  0  0  0  0  0  0  0  0  0
   -1.4399    1.3591   -0.1187 C   0  0  0  0  0  0  0  0  0  0  0  0
   -2.1064    2.5488   -0.1637 N   0  0  0  0  0  0  0  0  0  0  0  0
   -5.3872   -0.9362    0.1040 H   0  0  0  0  0  0  0  0  0  0  0  0
   -3.9358   -1.8188   -0.5737 H   0  0  0  0  0  0  0  0  0  0  0  0
   -3.9903    0.9365    0.7553 H   0  0  0  0  0  0  0  0  0  0  0  0
   -1.7839   -1.9762    0.2398 H   0  0  0  0  0  0  0  0  0  0  0  0
    1.8404   -2.0420   -0.6063 H   0  0  0  0  0  0  0  0  0  0  0  0
   -0.2824   -3.4196    1.1131 H   0  0  0  0  0  0  0  0  0  0  0  0
    1.2742   -4.1332    0.4747 H   0  0  0  0  0  0  0  0  0  0  0  0
    4.5348   -0.3452    1.5738 H   0  0  0  0  0  0  0  0  0  0  0  0
    4.4090    1.2423    0.7522 H   0  0  0  0  0  0  0  0  0  0  0  0
    4.5937   -0.2343   -0.2139 H   0  0  0  0  0  0  0  0  0  0  0  0
   -1.5469    3.3291   -0.4676 H   0  0  0  0  0  0  0  0  0  0  0  0
   -3.0746    2.5525   -0.4326 H   0  0  0  0  0  0  0  0  0  0  0  0
  1  2  2  0  0  0  0
  2  3  1  0  0  0  0
  3  4  4  0  0  0  0
  4  5  4  0  0  0  0
  5  6  1  0  0  0  0
  6  7  2  0  0  0  0
  5  8  4  0  0  0  0
  8  9  1  0  0  0  0
  9 10  2  0  0  0  0
  9 11  1  0  0  0  0
 11 12  1  0  0  0  0
  8 13  4  0  0  0  0
  3 14  4  0  0  0  0
 13 14  4  0  0  0  0
 14 15  4  0  0  0  0
  1 16  1  0  0  0  0
  1 17  1  0  0  0  0
  2 18  1  0  0  0  0
  4 19  1  0  0  0  0
  6 20  1  0  0  0  0
  7 21  1  0  0  0  0
  7 22  1  0  0  0  0
 12 23  1  0  0  0  0
 12 24  1  0  0  0  0
 12 25  1  0  0  0  0
 15 26  1  0  0  0  0
 15 27  1  0  0  0  0
M  END
