
 OpenBabel02012213403D

 29 30  0  0  0  0  0  0  0  0999 V2000
    1.1205   -0.0277    0.1547 C   0  0  0  0  0  0  0  0  0  0  0  0
    2.5707    0.0438    0.0722 N   0  0  0  0  0  0  0  0  0  0  0  0
    3.3855   -0.7371    0.9645 C   0  0  0  0  0  0  0  0  0  0  0  0
    3.0415   -2.0882    1.1383 C   0  0  0  0  0  0  0  0  0  0  0  0
    3.8082   -2.9404    1.9212 C   0  0  0  0  0  0  0  0  0  0  0  0
    4.9557   -2.4801    2.5714 C   0  0  0  0  0  0  0  0  0  0  0  0
    5.7540   -3.4574    3.3997 C   0  0  0  0  0  0  0  0  0  0  0  0
    4.5333   -0.2313    1.6489 C   0  0  0  0  0  0  0  0  0  0  0  0
    5.3260   -1.1175    2.4461 C   0  0  0  0  0  0  0  0  0  0  0  0
    6.4670   -0.6154    3.1117 C   0  0  0  0  0  0  0  0  0  0  0  0
    6.8124    0.7296    3.0198 C   0  0  0  0  0  0  0  0  0  0  0  0
    6.0249    1.6014    2.2798 C   0  0  0  0  0  0  0  0  0  0  0  0
    4.8970    1.1331    1.6072 C   0  0  0  0  0  0  0  0  0  0  0  0
    3.1497    0.7028   -1.0941 C   0  0  0  0  0  0  0  0  0  0  0  0
    0.7868   -0.6007    1.0461 H   0  0  0  0  0  0  0  0  0  0  0  0
    0.7123   -0.5144   -0.7568 H   0  0  0  0  0  0  0  0  0  0  0  0
    0.7031    0.9977    0.2391 H   0  0  0  0  0  0  0  0  0  0  0  0
    2.1779   -2.5013    0.6321 H   0  0  0  0  0  0  0  0  0  0  0  0
    3.5044   -3.9766    2.0085 H   0  0  0  0  0  0  0  0  0  0  0  0
    5.3097   -4.4755    3.3833 H   0  0  0  0  0  0  0  0  0  0  0  0
    5.7859   -3.1185    4.4565 H   0  0  0  0  0  0  0  0  0  0  0  0
    6.7875   -3.5319    3.0009 H   0  0  0  0  0  0  0  0  0  0  0  0
    7.0989   -1.2514    3.7164 H   0  0  0  0  0  0  0  0  0  0  0  0
    7.6863    1.1006    3.5403 H   0  0  0  0  0  0  0  0  0  0  0  0
    6.2847    2.6515    2.2330 H   0  0  0  0  0  0  0  0  0  0  0  0
    4.3134    1.8693    1.0909 H   0  0  0  0  0  0  0  0  0  0  0  0
    2.3554    1.1342   -1.7412 H   0  0  0  0  0  0  0  0  0  0  0  0
    3.7072   -0.0442   -1.6973 H   0  0  0  0  0  0  0  0  0  0  0  0
    3.8332    1.5279   -0.8552 H   0  0  0  0  0  0  0  0  0  0  0  0
  1  2  1  0  0  0  0
  1 15  1  0  0  0  0
  1 16  1  0  0  0  0
  1 17  1  0  0  0  0
  2  3  1  0  0  0  0
  2 14  1  0  0  0  0
  3  4  2  0  0  0  0
  3  8  1  0  0  0  0
  4  5  1  0  0  0  0
  4 18  1  0  0  0  0
  5  6  2  0  0  0  0
  5 19  1  0  0  0  0
  6  7  1  0  0  0  0
  6  9  1  0  0  0  0
  7 20  1  0  0  0  0
  7 21  1  0  0  0  0
  7 22  1  0  0  0  0
  8  9  1  0  0  0  0
  8 13  2  0  0  0  0
  9 10  2  0  0  0  0
 10 11  1  0  0  0  0
 10 23  1  0  0  0  0
 11 12  2  0  0  0  0
 11 24  1  0  0  0  0
 12 13  1  0  0  0  0
 12 25  1  0  0  0  0
 13 26  1  0  0  0  0
 14 27  1  0  0  0  0
 14 28  1  0  0  0  0
 14 29  1  0  0  0  0
M  END
