
  xtb     02032211133D
 xtb: 6.4.1 (23d549d)
 47 47  0     0  0            999 V2000
   -0.9838   -6.0239   -7.2432 c   0  0  0  0  0  0  0  0  0  0  0  0
   -0.9547   -4.7402   -6.8953 c   0  0  0  0  0  0  0  0  0  0  0  0
    0.0414   -4.1320   -6.0584 c   0  0  0  0  0  0  0  0  0  0  0  0
    0.1146   -2.8119   -5.6950 c   0  0  0  0  0  0  0  0  0  0  0  0
    1.2157   -2.4952   -4.8781 c   0  0  0  0  0  0  0  0  0  0  0  0
    1.5246   -1.0959   -4.4434 c   0  0  0  0  0  0  0  0  0  0  0  0
    2.6770   -0.4888   -5.2600 c   0  0  0  0  0  0  0  0  0  0  0  0
    2.4509   -0.5482   -6.7708 c   0  0  0  0  0  0  0  0  0  0  0  0
    1.3637    0.4029   -7.2699 c   0  0  0  0  0  0  0  0  0  0  0  0
    1.0009    0.1413   -8.7340 c   0  0  0  0  0  0  0  0  0  0  0  0
    0.0685   -1.0591   -8.8890 c   0  0  0  0  0  0  0  0  0  0  0  0
   -0.2295   -1.4254  -10.3427 c   0  0  0  0  0  0  0  0  0  0  0  0
    0.9777   -1.9195  -11.1436 c   0  0  0  0  0  0  0  0  0  0  0  0
    1.7138   -3.1143  -10.5345 c   0  0  0  0  0  0  0  0  0  0  0  0
    0.8297   -4.3429  -10.3557 c   0  0  0  0  0  0  0  0  0  0  0  0
    1.9945   -3.5988   -4.5999 c   0  0  0  0  0  0  0  0  0  0  0  0
    3.1746   -3.6588   -3.7833 c   0  0  0  0  0  0  0  0  0  0  0  0
    3.9387   -4.7363   -3.6225 c   0  0  0  0  0  0  0  0  0  0  0  0
    1.3603   -5.0280   -5.3689 s   0  0  0  0  0  0  0  0  0  0  0  0
   -1.7559   -6.4214   -7.8775 h   0  0  0  0  0  0  0  0  0  0  0  0
   -0.2304   -6.7139   -6.9012 h   0  0  0  0  0  0  0  0  0  0  0  0
   -1.7193   -4.0589   -7.2492 h   0  0  0  0  0  0  0  0  0  0  0  0
   -0.6124   -2.0840   -6.0102 h   0  0  0  0  0  0  0  0  0  0  0  0
    1.7975   -1.0801   -3.3854 h   0  0  0  0  0  0  0  0  0  0  0  0
    0.6285   -0.4855   -4.5622 h   0  0  0  0  0  0  0  0  0  0  0  0
    3.5933   -1.0368   -5.0292 h   0  0  0  0  0  0  0  0  0  0  0  0
    2.8198    0.5493   -4.9510 h   0  0  0  0  0  0  0  0  0  0  0  0
    2.1991   -1.5739   -7.0444 h   0  0  0  0  0  0  0  0  0  0  0  0
    3.3883   -0.2982   -7.2741 h   0  0  0  0  0  0  0  0  0  0  0  0
    1.7187    1.4305   -7.1584 h   0  0  0  0  0  0  0  0  0  0  0  0
    0.4647    0.2994   -6.6605 h   0  0  0  0  0  0  0  0  0  0  0  0
    1.9193   -0.0232   -9.2993 h   0  0  0  0  0  0  0  0  0  0  0  0
    0.5086    1.0232   -9.1513 h   0  0  0  0  0  0  0  0  0  0  0  0
   -0.8797   -0.8251   -8.3960 h   0  0  0  0  0  0  0  0  0  0  0  0
    0.4923   -1.9250   -8.3808 h   0  0  0  0  0  0  0  0  0  0  0  0
   -0.6418   -0.5500  -10.8519 h   0  0  0  0  0  0  0  0  0  0  0  0
   -1.0002   -2.1990  -10.3526 h   0  0  0  0  0  0  0  0  0  0  0  0
    1.6891   -1.1005  -11.2683 h   0  0  0  0  0  0  0  0  0  0  0  0
    0.6278   -2.1967  -12.1417 h   0  0  0  0  0  0  0  0  0  0  0  0
    2.1444   -2.8337   -9.5718 h   0  0  0  0  0  0  0  0  0  0  0  0
    2.5451   -3.3702  -11.1966 h   0  0  0  0  0  0  0  0  0  0  0  0
    0.0619   -4.1703   -9.6058 h   0  0  0  0  0  0  0  0  0  0  0  0
    1.4268   -5.1925  -10.0311 h   0  0  0  0  0  0  0  0  0  0  0  0
    0.3451   -4.6029  -11.2946 h   0  0  0  0  0  0  0  0  0  0  0  0
    3.4257   -2.7391   -3.2713 h   0  0  0  0  0  0  0  0  0  0  0  0
    3.7152   -5.6638   -4.1230 h   0  0  0  0  0  0  0  0  0  0  0  0
    4.8083   -4.7233   -2.9899 h   0  0  0  0  0  0  0  0  0  0  0  0
  1  2  2  0  0  0  0
  2  3  1  0  0  0  0
  3  4  2  0  0  0  0
  4  5  4  0  0  0  0
  5  6  1  0  0  0  0
  6  7  1  0  0  0  0
  7  8  1  0  0  0  0
  8  9  1  0  0  0  0
  9 10  1  0  0  0  0
 10 11  1  0  0  0  0
 11 12  1  0  0  0  0
 12 13  1  0  0  0  0
 13 14  1  0  0  0  0
 14 15  1  0  0  0  0
  5 16  4  0  0  0  0
 16 17  1  0  0  0  0
 17 18  2  0  0  0  0
  3 19  1  0  0  0  0
 16 19  1  0  0  0  0
  1 20  1  0  0  0  0
  1 21  1  0  0  0  0
  2 22  1  0  0  0  0
  4 23  1  0  0  0  0
  6 24  1  0  0  0  0
  6 25  1  0  0  0  0
  7 26  1  0  0  0  0
  7 27  1  0  0  0  0
  8 28  1  0  0  0  0
  8 29  1  0  0  0  0
  9 30  1  0  0  0  0
  9 31  1  0  0  0  0
 10 32  1  0  0  0  0
 10 33  1  0  0  0  0
 11 34  1  0  0  0  0
 11 35  1  0  0  0  0
 12 36  1  0  0  0  0
 12 37  1  0  0  0  0
 13 38  1  0  0  0  0
 13 39  1  0  0  0  0
 14 40  1  0  0  0  0
 14 41  1  0  0  0  0
 15 42  1  0  0  0  0
 15 43  1  0  0  0  0
 15 44  1  0  0  0  0
 17 45  1  0  0  0  0
 18 46  1  0  0  0  0
 18 47  1  0  0  0  0
M  END
