
 OpenBabel02012213583D

 24 25  0  0  0  0  0  0  0  0999 V2000
    1.1141    2.9039    0.0216 C   0  0  0  0  0  0  0  0  0  0  0  0
    1.0304    1.3974    0.0154 C   0  0  0  0  0  0  0  0  0  0  0  0
    2.2217    0.6598    0.0089 C   0  0  0  0  0  0  0  0  0  0  0  0
    2.2011   -0.7314    0.0080 C   0  0  0  0  0  0  0  0  0  0  0  0
    0.9889   -1.4339    0.0136 C   0  0  0  0  0  0  0  0  0  0  0  0
    1.0282   -2.9420    0.0173 C   0  0  0  0  0  0  0  0  0  0  0  0
   -0.2333   -0.7133    0.0166 C   0  0  0  0  0  0  0  0  0  0  0  0
   -1.4784   -1.3798    0.0191 C   0  0  0  0  0  0  0  0  0  0  0  0
   -2.6725   -0.6599    0.0219 C   0  0  0  0  0  0  0  0  0  0  0  0
   -2.6521    0.7313    0.0227 C   0  0  0  0  0  0  0  0  0  0  0  0
   -1.4375    1.4159    0.0213 C   0  0  0  0  0  0  0  0  0  0  0  0
   -0.2121    0.7131    0.0178 C   0  0  0  0  0  0  0  0  0  0  0  0
    2.1661    3.2606    0.0191 H   0  0  0  0  0  0  0  0  0  0  0  0
    0.6221    3.3032    0.9335 H   0  0  0  0  0  0  0  0  0  0  0  0
    0.6133    3.3136   -0.8806 H   0  0  0  0  0  0  0  0  0  0  0  0
    3.1805    1.1637    0.0059 H   0  0  0  0  0  0  0  0  0  0  0  0
    3.1448   -1.2633    0.0042 H   0  0  0  0  0  0  0  0  0  0  0  0
    2.0695   -3.3294    0.0146 H   0  0  0  0  0  0  0  0  0  0  0  0
    0.5160   -3.3356   -0.8857 H   0  0  0  0  0  0  0  0  0  0  0  0
    0.5246   -3.3281    0.9285 H   0  0  0  0  0  0  0  0  0  0  0  0
   -1.5438   -2.4594    0.0185 H   0  0  0  0  0  0  0  0  0  0  0  0
   -3.6194   -1.1847    0.0229 H   0  0  0  0  0  0  0  0  0  0  0  0
   -3.5832    1.2835    0.0248 H   0  0  0  0  0  0  0  0  0  0  0  0
   -1.4712    2.4968    0.0222 H   0  0  0  0  0  0  0  0  0  0  0  0
  1  2  1  0  0  0  0
  1 13  1  0  0  0  0
  1 14  1  0  0  0  0
  1 15  1  0  0  0  0
  2  3  1  0  0  0  0
  2 12  2  0  0  0  0
  3  4  2  0  0  0  0
  3 16  1  0  0  0  0
  4  5  1  0  0  0  0
  4 17  1  0  0  0  0
  5  6  1  0  0  0  0
  5  7  2  0  0  0  0
  6 18  1  0  0  0  0
  6 19  1  0  0  0  0
  6 20  1  0  0  0  0
  7  8  1  0  0  0  0
  7 12  1  0  0  0  0
  8  9  2  0  0  0  0
  8 21  1  0  0  0  0
  9 10  1  0  0  0  0
  9 22  1  0  0  0  0
 10 11  2  0  0  0  0
 10 23  1  0  0  0  0
 11 12  1  0  0  0  0
 11 24  1  0  0  0  0
M  END
