
  xtb     02032211353D
 xtb: 6.4.1 (23d549d)
 32 32  0     0  0            999 V2000
   -2.9071    2.3346   -0.2700 C   0  0  0  0  0  0  0  0  0  0  0  0
   -2.6092    1.1890    0.3285 C   0  0  0  0  0  0  0  0  0  0  0  0
   -1.2886    0.5627    0.3226 C   0  0  0  0  0  0  0  0  0  0  0  0
   -0.1444    1.3577    0.3263 C   0  0  0  0  0  0  0  0  0  0  0  0
    1.1351    0.8311    0.3322 C   0  0  0  0  0  0  0  0  0  0  0  0
    2.3161    1.7605    0.2858 C   0  0  0  0  0  0  0  0  0  0  0  0
    2.9545    1.7702   -1.1041 C   0  0  0  0  0  0  0  0  0  0  0  0
    1.2883   -0.5624    0.3227 C   0  0  0  0  0  0  0  0  0  0  0  0
    2.6089   -1.1887    0.3290 C   0  0  0  0  0  0  0  0  0  0  0  0
    2.9071   -2.3341   -0.2697 C   0  0  0  0  0  0  0  0  0  0  0  0
    0.1442   -1.3574    0.3266 C   0  0  0  0  0  0  0  0  0  0  0  0
   -1.1354   -0.8308    0.3324 C   0  0  0  0  0  0  0  0  0  0  0  0
   -2.3162   -1.7603    0.2862 C   0  0  0  0  0  0  0  0  0  0  0  0
   -2.9536   -1.7718   -1.1041 C   0  0  0  0  0  0  0  0  0  0  0  0
   -3.8972    2.7559   -0.2245 H   0  0  0  0  0  0  0  0  0  0  0  0
   -2.1823    2.8866   -0.8449 H   0  0  0  0  0  0  0  0  0  0  0  0
   -3.3863    0.6568    0.8621 H   0  0  0  0  0  0  0  0  0  0  0  0
   -0.2648    2.4316    0.3460 H   0  0  0  0  0  0  0  0  0  0  0  0
    3.0639    1.4634    1.0248 H   0  0  0  0  0  0  0  0  0  0  0  0
    1.9880    2.7716    0.5361 H   0  0  0  0  0  0  0  0  0  0  0  0
    3.3023    0.7747   -1.3705 H   0  0  0  0  0  0  0  0  0  0  0  0
    3.8002    2.4540   -1.1300 H   0  0  0  0  0  0  0  0  0  0  0  0
    2.2278    2.0887   -1.8484 H   0  0  0  0  0  0  0  0  0  0  0  0
    3.3857   -0.6567    0.8633 H   0  0  0  0  0  0  0  0  0  0  0  0
    2.1827   -2.8860   -0.8452 H   0  0  0  0  0  0  0  0  0  0  0  0
    3.8972   -2.7553   -0.2239 H   0  0  0  0  0  0  0  0  0  0  0  0
    0.2646   -2.4313    0.3464 H   0  0  0  0  0  0  0  0  0  0  0  0
   -3.0647   -1.4626    1.0242 H   0  0  0  0  0  0  0  0  0  0  0  0
   -1.9881   -2.7711    0.5379 H   0  0  0  0  0  0  0  0  0  0  0  0
   -3.3018   -0.7768   -1.3718 H   0  0  0  0  0  0  0  0  0  0  0  0
   -3.7988   -2.4562   -1.1301 H   0  0  0  0  0  0  0  0  0  0  0  0
   -2.2261   -2.0905   -1.8476 H   0  0  0  0  0  0  0  0  0  0  0  0
  1  2  2  0  0  0  0
  2  3  1  0  0  0  0
  3  4  4  0  0  0  0
  4  5  4  0  0  0  0
  5  6  1  0  0  0  0
  6  7  1  0  0  0  0
  5  8  4  0  0  0  0
  8  9  1  0  0  0  0
  9 10  2  0  0  0  0
  8 11  4  0  0  0  0
  3 12  4  0  0  0  0
 11 12  4  0  0  0  0
 12 13  1  0  0  0  0
 13 14  1  0  0  0  0
  1 15  1  0  0  0  0
  1 16  1  0  0  0  0
  2 17  1  0  0  0  0
  4 18  1  0  0  0  0
  6 19  1  0  0  0  0
  6 20  1  0  0  0  0
  7 21  1  0  0  0  0
  7 22  1  0  0  0  0
  7 23  1  0  0  0  0
  9 24  1  0  0  0  0
 10 25  1  0  0  0  0
 10 26  1  0  0  0  0
 11 27  1  0  0  0  0
 13 28  1  0  0  0  0
 13 29  1  0  0  0  0
 14 30  1  0  0  0  0
 14 31  1  0  0  0  0
 14 32  1  0  0  0  0
M  END
