
 OpenBabel02012213593D

 22 22  0  0  0  0  0  0  0  0999 V2000
    2.9133   -0.0134    0.0066 C   0  0  0  0  0  0  0  0  0  0  0  0
    1.4131   -0.0099    0.0040 C   0  0  0  0  0  0  0  0  0  0  0  0
    0.6956   -1.2054    0.0001 C   0  0  0  0  0  0  0  0  0  0  0  0
   -0.7001   -1.1897    0.0013 C   0  0  0  0  0  0  0  0  0  0  0  0
   -1.4107    0.0208    0.0015 C   0  0  0  0  0  0  0  0  0  0  0  0
   -2.9145   -0.0211    0.0041 C   0  0  0  0  0  0  0  0  0  0  0  0
   -0.6961    1.2375   -0.0042 C   0  0  0  0  0  0  0  0  0  0  0  0
   -1.3959    2.5827   -0.0023 C   0  0  0  0  0  0  0  0  0  0  0  0
   -1.6808    3.0892    1.3494 C   0  0  0  0  0  0  0  0  0  0  0  0
   -1.9250    3.5197    2.3995 N   0  0  0  0  0  0  0  0  0  0  0  0
    0.7122    1.2041    0.0059 C   0  0  0  0  0  0  0  0  0  0  0  0
    3.3130   -1.0327   -0.0023 H   0  0  0  0  0  0  0  0  0  0  0  0
    3.2917    0.4872    0.9038 H   0  0  0  0  0  0  0  0  0  0  0  0
    3.2943    0.5020   -0.8820 H   0  0  0  0  0  0  0  0  0  0  0  0
    1.2134   -2.1604    0.0001 H   0  0  0  0  0  0  0  0  0  0  0  0
   -1.2321   -2.1394    0.0029 H   0  0  0  0  0  0  0  0  0  0  0  0
   -3.2898   -1.0497    0.0152 H   0  0  0  0  0  0  0  0  0  0  0  0
   -3.3089    0.4593   -0.8968 H   0  0  0  0  0  0  0  0  0  0  0  0
   -3.3079    0.4827    0.8926 H   0  0  0  0  0  0  0  0  0  0  0  0
   -2.3268    2.5209   -0.5777 H   0  0  0  0  0  0  0  0  0  0  0  0
   -0.7796    3.3095   -0.5455 H   0  0  0  0  0  0  0  0  0  0  0  0
    1.2770    2.1370    0.0141 H   0  0  0  0  0  0  0  0  0  0  0  0
  1  2  1  0  0  0  0
  1 12  1  0  0  0  0
  1 13  1  0  0  0  0
  1 14  1  0  0  0  0
  2  3  1  0  0  0  0
  2 11  2  0  0  0  0
  3  4  2  0  0  0  0
  3 15  1  0  0  0  0
  4  5  1  0  0  0  0
  4 16  1  0  0  0  0
  5  6  1  0  0  0  0
  5  7  2  0  0  0  0
  6 17  1  0  0  0  0
  6 18  1  0  0  0  0
  6 19  1  0  0  0  0
  7  8  1  0  0  0  0
  7 11  1  0  0  0  0
  8  9  1  0  0  0  0
  8 20  1  0  0  0  0
  8 21  1  0  0  0  0
  9 10  3  0  0  0  0
 11 22  1  0  0  0  0
M  END
