 xtb: 6.5.0 (unknown)
          08122213093D

 27  0  0     0  0            999 V2000
   -4.0816    1.4433   -0.0586 C   0  0  0  0  0  0  0  0  0  0  0  0
   -2.8712    1.5000   -0.5965 C   0  0  0  0  0  0  0  0  0  0  0  0
   -1.7976    0.5348   -0.3548 C   0  0  0  0  0  0  0  0  0  0  0  0
   -2.0862   -0.8064   -0.1199 C   0  0  0  0  0  0  0  0  0  0  0  0
   -1.0604   -1.7206    0.0356 C   0  0  0  0  0  0  0  0  0  0  0  0
   -1.4405   -3.3820    0.3237 Cl  0  0  0  0  0  0  0  0  0  0  0  0
    0.2640   -1.3348   -0.0573 C   0  0  0  0  0  0  0  0  0  0  0  0
    0.5813    0.0041   -0.2819 C   0  0  0  0  0  0  0  0  0  0  0  0
    1.9477    0.4856   -0.4032 C   0  0  0  0  0  0  0  0  0  0  0  0
    3.0749   -0.1704   -0.1771 C   0  0  0  0  0  0  0  0  0  0  0  0
    3.2261   -1.4279    0.2204 F   0  0  0  0  0  0  0  0  0  0  0  0
    4.2772    0.3832   -0.3175 F   0  0  0  0  0  0  0  0  0  0  0  0
   -0.4574    0.9438   -0.4145 C   0  0  0  0  0  0  0  0  0  0  0  0
   -0.1323    2.2620   -0.6350 O   0  0  0  0  0  0  0  0  0  0  0  0
   -0.4366    3.1624    0.4229 C   0  0  0  0  0  0  0  0  0  0  0  0
    0.4548    2.9530    1.6420 C   0  0  0  0  0  0  0  0  0  0  0  0
   -4.8347    2.1767   -0.2893 H   0  0  0  0  0  0  0  0  0  0  0  0
   -4.3614    0.6762    0.6439 H   0  0  0  0  0  0  0  0  0  0  0  0
   -2.6129    2.3035   -1.2750 H   0  0  0  0  0  0  0  0  0  0  0  0
   -3.1122   -1.1361   -0.0905 H   0  0  0  0  0  0  0  0  0  0  0  0
    1.0401   -2.0745    0.0415 H   0  0  0  0  0  0  0  0  0  0  0  0
    2.0511    1.5144   -0.7157 H   0  0  0  0  0  0  0  0  0  0  0  0
   -1.4901    3.0685    0.7148 H   0  0  0  0  0  0  0  0  0  0  0  0
   -0.2729    4.1537   -0.0065 H   0  0  0  0  0  0  0  0  0  0  0  0
    0.3066    1.9557    2.0516 H   0  0  0  0  0  0  0  0  0  0  0  0
    0.2043    3.6855    2.4041 H   0  0  0  0  0  0  0  0  0  0  0  0
    1.5023    3.0681    1.3750 H   0  0  0  0  0  0  0  0  0  0  0  0
M  END
