
  xtb     02012214093D
 xtb: 6.4.1 (23d549d)
 17 17  0     0  0            999 V2000
    1.0793    0.0595   -0.0408 c   0  0  0  0  0  0  0  0  0  0  0  0
    2.5751    0.0641   -0.0379 c   0  0  0  0  0  0  0  0  0  0  0  0
    3.3050    1.2455   -0.0371 c   0  0  0  0  0  0  0  0  0  0  0  0
    4.6267    1.2813   -0.0346 n   0  0  0  0  0  0  0  0  0  0  0  0
    5.2733    0.1431   -0.0328 c   0  0  0  0  0  0  0  0  0  0  0  0
    6.6152    0.2433   -0.0302 f   0  0  0  0  0  0  0  0  0  0  0  0
    4.6846   -1.1204   -0.0333 c   0  0  0  0  0  0  0  0  0  0  0  0
    5.4874   -2.3823   -0.0311 c   0  0  0  0  0  0  0  0  0  0  0  0
    3.2967   -1.1266   -0.0359 c   0  0  0  0  0  0  0  0  0  0  0  0
    0.6903    1.0741   -0.0419 h   0  0  0  0  0  0  0  0  0  0  0  0
    0.7008   -0.4596    0.8387 h   0  0  0  0  0  0  0  0  0  0  0  0
    0.7042   -0.4602   -0.9214 h   0  0  0  0  0  0  0  0  0  0  0  0
    2.8170    2.2105   -0.0385 h   0  0  0  0  0  0  0  0  0  0  0  0
    6.5513   -2.1621   -0.0291 h   0  0  0  0  0  0  0  0  0  0  0  0
    5.2530   -2.9780   -0.9124 h   0  0  0  0  0  0  0  0  0  0  0  0
    5.2494   -2.9773    0.8496 h   0  0  0  0  0  0  0  0  0  0  0  0
    2.7727   -2.0728   -0.0365 h   0  0  0  0  0  0  0  0  0  0  0  0
  1  2  1  0  0  0  0
  2  3  4  0  0  0  0
  3  4  4  0  0  0  0
  4  5  4  0  0  0  0
  5  6  1  0  0  0  0
  5  7  4  0  0  0  0
  7  8  1  0  0  0  0
  2  9  4  0  0  0  0
  7  9  4  0  0  0  0
  1 10  1  0  0  0  0
  1 11  1  0  0  0  0
  1 12  1  0  0  0  0
  3 13  1  0  0  0  0
  8 14  1  0  0  0  0
  8 15  1  0  0  0  0
  8 16  1  0  0  0  0
  9 17  1  0  0  0  0
M  END
