48

C          2.11727       -1.31960        0.74147
C          2.73366       -0.28155        0.16523
C          3.19510        0.90751        0.92197
C          3.07076        1.12992        2.28361
N          3.62270        2.31380        2.60870
Si         3.71530        2.99890        4.27630
C          5.34960        2.42620        5.07840
C          5.47046        2.96742        6.50616
C          5.48992        0.90060        5.09032
C          3.80260        4.89460        4.06590
C          2.57351        5.46707        3.35808
C          4.06839        5.63217        5.37906
C          2.27440        2.29580        5.33540
C          0.89819        2.62716        4.74865
C          2.36851        0.78386        5.58053
C          4.09314        2.86333        1.47164
C          3.84996        2.01689        0.40291
C          4.22004        2.23889       -1.01577
C          5.39349        1.85497       -1.53317
H          1.80412       -2.16351        0.13490
H          1.91491       -1.35205        1.80550
H          2.89963       -0.32604       -0.90496
H          2.61810        0.45689        2.99842
H          6.18598        2.83505        4.47376
H          4.64585        2.58092        7.14297
H          5.44183        4.07569        6.51126
H          6.43974        2.65575        6.95113
H          4.70050        0.43013        5.70943
H          6.47523        0.61609        5.51742
H          5.44518        0.49211        4.06055
H          4.67030        5.07933        3.39905
H          1.66879        5.38310        3.98343
H          2.40427        4.94630        2.39197
H          2.73149        6.54576        3.14529
H          3.21590        5.53547        6.07463
H          4.22178        6.71376        5.17809
H          4.98883        5.24478        5.86449
H          2.35157        2.80225        6.32036
H          0.73919        2.11265        3.78318
H          0.77855        3.71930        4.60487
H          0.09971        2.28872        5.44313
H          2.19955        0.21563        4.64939
H          1.58243        0.47337        6.30184
H          3.34656        0.48948        6.00401
H          4.57970        3.82438        1.41508
H          3.51577        2.72894       -1.67812
H          6.14997        1.35501       -0.93955
H          5.60572        2.04081       -2.58127
48

C          1.10215        0.67391       -0.79026
C          2.10074        0.23911       -0.01353
C          2.91093        1.13918        0.84257
C          2.65786        1.49021        2.15852
N          3.62270        2.31380        2.60870
Si         3.71530        2.99890        4.27630
C          5.34960        2.42620        5.07840
C          6.55232        2.92685        4.27289
C          5.47609        2.88436        6.53489
C          3.80260        4.89460        4.06590
C          2.57351        5.46707        3.35808
C          4.06839        5.63217        5.37906
C          2.27440        2.29580        5.33540
C          0.89819        2.62716        4.74865
C          2.36851        0.78386        5.58053
C          4.49062        2.50695        1.59598
C          4.08426        1.78969        0.48324
C          4.76555        1.71754       -0.83188
C          6.09123        1.83636       -0.97519
H          0.54299       -0.03395       -1.39397
H          0.82512        1.72022       -0.84174
H          2.31508       -0.82337       -0.01764
H          1.82529        1.14923        2.75801
H          5.35907        1.31617        5.07413
H          6.57516        4.03768        4.25209
H          6.51541        2.54669        3.23211
H          7.49641        2.56000        4.72978
H          5.50770        3.98968        6.60627
H          6.41493        2.48570        6.97519
H          4.63449        2.49808        7.14463
H          4.67030        5.07933        3.39905
H          1.66879        5.38310        3.98343
H          2.40427        4.94630        2.39197
H          2.73149        6.54576        3.14529
H          3.21590        5.53547        6.07463
H          4.22178        6.71376        5.17809
H          4.98883        5.24478        5.86449
H          2.35157        2.80225        6.32036
H          0.73919        2.11265        3.78318
H          0.77855        3.71930        4.60487
H          0.09971        2.28872        5.44313
H          2.19955        0.21563        4.64939
H          1.58243        0.47337        6.30184
H          3.34656        0.48948        6.00401
H          5.36552        3.13518        1.65458
H          4.17640        1.55627       -1.72728
H          6.75111        1.99464       -0.13014
H          6.53336        1.77003       -1.96423
48

C          4.67090       -1.05693       -0.23052
C          3.55520       -0.44937        0.18856
C          3.56284        0.83400        0.93175
C          3.61773        1.00230        2.30567
N          3.62270        2.31380        2.60870
Si         3.71530        2.99890        4.27630
C          5.34960        2.42620        5.07840
C          6.55232        2.92685        4.27289
C          5.47609        2.88436        6.53489
C          3.80260        4.89460        4.06590
C          2.57351        5.46707        3.35808
C          4.06839        5.63217        5.37906
C          2.27440        2.29580        5.33540
C          2.32962        0.76980        5.46307
C          2.17649        2.91682        6.73528
C          3.56150        2.99459        1.44724
C          3.52743        2.10932        0.38285
C          3.47319        2.44738       -1.05996
C          4.00850        3.56371       -1.56919
H          4.60150       -1.99494       -0.77229
H          5.65592       -0.64400       -0.04786
H          2.60818       -0.92700       -0.03475
H          3.66862        0.21136        3.04096
H          5.35907        1.31617        5.07413
H          6.57516        4.03768        4.25209
H          6.51541        2.54669        3.23211
H          7.49641        2.56000        4.72978
H          5.50770        3.98968        6.60627
H          6.41493        2.48570        6.97519
H          4.63449        2.49808        7.14463
H          4.67030        5.07933        3.39905
H          1.66879        5.38310        3.98343
H          2.40427        4.94630        2.39197
H          2.73149        6.54576        3.14529
H          3.21590        5.53547        6.07463
H          4.22178        6.71376        5.17809
H          4.98883        5.24478        5.86449
H          1.34484        2.55455        4.78627
H          3.21336        0.44747        6.04382
H          2.35142        0.28684        4.46607
H          1.42700        0.40218        5.99649
H          3.02817        2.61362        7.36866
H          1.25115        2.56115        7.23714
H          2.13504        4.02118        6.70031
H          3.53687        4.07035        1.37193
H          2.98522        1.76598       -1.74729
H          4.51744        4.29380       -0.95067
H          3.94123        3.75448       -2.63557
48

C          4.76906        3.54852       -1.40574
C          4.15628        2.42215       -1.02453
C          3.82530        2.11945        0.38908
C          4.08284        2.91324        1.49477
N          3.62270        2.31380        2.60870
Si         3.71530        2.99890        4.27630
C          5.34960        2.42620        5.07840
C          5.41625        0.89716        5.13846
C          6.58045        2.96882        4.34503
C          3.80260        4.89460        4.06590
C          2.57351        5.46707        3.35808
C          4.06839        5.63217        5.37906
C          2.27440        2.29580        5.33540
C          2.32962        0.76980        5.46307
C          2.17649        2.91682        6.73528
C          3.07998        1.13762        2.23688
C          3.18300        0.98349        0.86450
C          2.69825       -0.15993        0.05423
C          2.63802       -1.41289        0.52171
H          4.98343        3.71498       -2.45671
H          5.06457        4.31273       -0.69666
H          3.89254        1.70737       -1.79548
H          4.56362        3.88151        1.48346
H          5.37571        2.82183        6.11526
H          5.38945        0.46318        4.11580
H          4.56992        0.48859        5.72660
H          6.35595        0.57589        5.63686
H          6.63276        2.58120        3.30828
H          7.50441        2.65394        4.87546
H          6.57144        4.07735        4.32563
H          4.67030        5.07933        3.39905
H          1.66879        5.38310        3.98343
H          2.40427        4.94630        2.39197
H          2.73149        6.54576        3.14529
H          3.21590        5.53547        6.07463
H          4.22178        6.71376        5.17809
H          4.98883        5.24478        5.86449
H          1.34484        2.55455        4.78627
H          3.21336        0.44747        6.04382
H          2.35142        0.28684        4.46607
H          1.42700        0.40218        5.99649
H          3.02817        2.61362        7.36866
H          1.25115        2.56115        7.23714
H          2.13504        4.02118        6.70031
H          2.63928        0.42718        2.91850
H          2.36911        0.01220       -0.96404
H          2.94378       -1.66805        1.52969
H          2.26912       -2.20842       -0.11791
48

C          4.33453       -0.36922       -1.16459
C          4.92863        0.37846       -0.22781
C          4.17518        1.20685        0.74457
C          4.55618        1.53087        2.03640
N          3.62270        2.31380        2.60870
Si         3.71530        2.99890        4.27630
C          5.34960        2.42620        5.07840
C          5.47046        2.96742        6.50616
C          5.48992        0.90060        5.09032
C          3.80260        4.89460        4.06590
C          5.01160        5.34199        3.24277
C          2.51135        5.49638        3.50952
C          2.27440        2.29580        5.33540
C          2.27410        2.84570        6.76566
C          0.88844        2.50859        4.71189
C          2.63845        2.49107        1.70536
C          2.94809        1.82206        0.53303
C          2.14003        1.77432       -0.70942
C          2.52271        1.10590       -1.80434
H          4.93988       -0.95673       -1.84765
H          3.25700       -0.41229       -1.27048
H          6.01170        0.36673       -0.18710
H          5.47165        1.22595        2.52401
H          6.18598        2.83505        4.47376
H          4.64585        2.58092        7.14297
H          5.44183        4.07569        6.51126
H          6.43974        2.65575        6.95113
H          4.70050        0.43013        5.70943
H          6.47523        0.61609        5.51742
H          5.44518        0.49211        4.06055
H          3.94485        5.30031        5.08908
H          4.92100        5.03400        2.18751
H          5.94793        4.92497        3.67007
H          5.08820        6.44998        3.26019
H          2.33422        5.17573        2.46754
H          2.57988        6.60498        3.51675
H          1.64354        5.20733        4.13903
H          2.45257        1.20160        5.39515
H          2.05475        3.92915        6.77891
H          3.24740        2.66371        7.26296
H          1.48852        2.33837        7.36555
H          0.60752        3.57607        4.71432
H          0.12383        1.96653        5.30868
H          0.83435        2.12922        3.67473
H          1.74364        3.06636        1.88398
H          1.19053        2.29582       -0.74601
H          3.45529        0.55544       -1.84788
H          1.88569        1.10359       -2.68313
48

C          5.53955       -0.11086       -0.71425
C          5.08745        1.13718       -0.54833
C          4.24453        1.54650        0.60118
C          4.67907        2.03579        1.82214
N          3.62270        2.31380        2.60870
Si         3.71530        2.99890        4.27630
C          5.34960        2.42620        5.07840
C          6.55232        2.92685        4.27289
C          5.47609        2.88436        6.53489
C          3.80260        4.89460        4.06590
C          2.57351        5.46707        3.35808
C          4.06839        5.63217        5.37906
C          2.27440        2.29580        5.33540
C          2.32962        0.76980        5.46307
C          2.17649        2.91682        6.73528
C          2.51123        2.00042        1.91400
C          2.85708        1.52459        0.66030
C          1.93527        1.08541       -0.41502
C          2.26102        0.15620       -1.32197
H          6.15501       -0.34989       -1.57580
H          5.31236       -0.90466       -0.01253
H          5.35983        1.87420       -1.29495
H          5.70813        2.19570        2.11248
H          5.35907        1.31617        5.07413
H          6.57516        4.03768        4.25209
H          6.51541        2.54669        3.23211
H          7.49641        2.56000        4.72978
H          5.50770        3.98968        6.60627
H          6.41493        2.48570        6.97519
H          4.63449        2.49808        7.14463
H          4.67030        5.07933        3.39905
H          1.66879        5.38310        3.98343
H          2.40427        4.94630        2.39197
H          2.73149        6.54576        3.14529
H          3.21590        5.53547        6.07463
H          4.22178        6.71376        5.17809
H          4.98883        5.24478        5.86449
H          1.34484        2.55455        4.78627
H          3.21336        0.44747        6.04382
H          2.35142        0.28684        4.46607
H          1.42700        0.40218        5.99649
H          3.02817        2.61362        7.36866
H          1.25115        2.56115        7.23714
H          2.13504        4.02118        6.70031
H          1.50648        2.10375        2.29262
H          0.94637        1.52448       -0.47925
H          3.22754       -0.33413       -1.32420
H          1.54145       -0.12776       -2.08333
48

C          4.33453       -0.36922       -1.16459
C          4.92863        0.37846       -0.22781
C          4.17518        1.20685        0.74457
C          4.55618        1.53087        2.03640
N          3.62270        2.31380        2.60870
Si         3.71530        2.99890        4.27630
C          5.34960        2.42620        5.07840
C          6.55232        2.92685        4.27289
C          5.47609        2.88436        6.53489
C          3.80260        4.89460        4.06590
C          5.01160        5.34199        3.24277
C          2.51135        5.49638        3.50952
C          2.27440        2.29580        5.33540
C          2.32962        0.76980        5.46307
C          2.17649        2.91682        6.73528
C          2.63845        2.49107        1.70536
C          2.94809        1.82206        0.53303
C          2.14003        1.77432       -0.70942
C          2.52271        1.10590       -1.80434
H          4.93988       -0.95673       -1.84765
H          3.25700       -0.41229       -1.27048
H          6.01170        0.36673       -0.18710
H          5.47165        1.22595        2.52401
H          5.35907        1.31617        5.07413
H          6.57516        4.03768        4.25209
H          6.51541        2.54669        3.23211
H          7.49641        2.56000        4.72978
H          5.50770        3.98968        6.60627
H          6.41493        2.48570        6.97519
H          4.63449        2.49808        7.14463
H          3.94485        5.30031        5.08908
H          4.92100        5.03400        2.18751
H          5.94793        4.92497        3.67007
H          5.08820        6.44998        3.26019
H          2.33422        5.17573        2.46754
H          2.57988        6.60498        3.51675
H          1.64354        5.20733        4.13903
H          1.34484        2.55455        4.78627
H          3.21336        0.44747        6.04382
H          2.35142        0.28684        4.46607
H          1.42700        0.40218        5.99649
H          3.02817        2.61362        7.36866
H          1.25115        2.56115        7.23714
H          2.13504        4.02118        6.70031
H          1.74364        3.06636        1.88398
H          1.19053        2.29582       -0.74601
H          3.45529        0.55544       -1.84788
H          1.88569        1.10359       -2.68313
48

C          4.33453       -0.36922       -1.16459
C          4.92863        0.37846       -0.22781
C          4.17518        1.20685        0.74457
C          4.55618        1.53087        2.03640
N          3.62270        2.31380        2.60870
Si         3.71530        2.99890        4.27630
C          5.34960        2.42620        5.07840
C          5.47046        2.96742        6.50616
C          5.48992        0.90060        5.09032
C          3.80260        4.89460        4.06590
C          3.90364        5.63263        5.40174
C          4.91033        5.34165        3.11086
C          2.27440        2.29580        5.33540
C          0.89819        2.62716        4.74865
C          2.36851        0.78386        5.58053
C          2.63845        2.49107        1.70536
C          2.94809        1.82206        0.53303
C          2.14003        1.77432       -0.70942
C          1.33355        2.77084       -1.09492
H          4.93988       -0.95673       -1.84765
H          3.25700       -0.41229       -1.27048
H          6.01170        0.36673       -0.18710
H          5.47165        1.22595        2.52401
H          6.18598        2.83505        4.47376
H          4.64585        2.58092        7.14297
H          5.44183        4.07569        6.51126
H          6.43974        2.65575        6.95113
H          4.70050        0.43013        5.70943
H          6.47523        0.61609        5.51742
H          5.44518        0.49211        4.06055
H          2.83333        5.18751        3.61153
H          4.87241        5.44780        5.89567
H          3.07917        5.32442        6.07885
H          3.82018        6.72732        5.23293
H          5.91091        5.12863        3.52722
H          4.83970        6.43690        2.93995
H          4.80338        4.83848        2.12683
H          2.35157        2.80225        6.32036
H          0.73919        2.11265        3.78318
H          0.77855        3.71930        4.60487
H          0.09971        2.28872        5.44313
H          2.19955        0.21563        4.64939
H          1.58243        0.47337        6.30184
H          3.34656        0.48948        6.00401
H          1.74364        3.06636        1.88398
H          2.19867        0.90051       -1.34806
H          1.22202        3.67992       -0.51548
H          0.77000        2.68013       -2.01810
48

C          6.11552       -0.17333        0.04854
C          4.92863        0.37846       -0.22781
C          4.17518        1.20685        0.74457
C          4.55618        1.53087        2.03640
N          3.62270        2.31380        2.60870
Si         3.71530        2.99890        4.27630
C          5.34960        2.42620        5.07840
C          5.41625        0.89716        5.13846
C          6.58045        2.96882        4.34503
C          3.80260        4.89460        4.06590
C          2.57351        5.46707        3.35808
C          4.06839        5.63217        5.37906
C          2.27440        2.29580        5.33540
C          0.89819        2.62716        4.74865
C          2.36851        0.78386        5.58053
C          2.63845        2.49107        1.70536
C          2.94809        1.82206        0.53303
C          2.14003        1.77432       -0.70942
C          2.68010        1.64406       -1.92738
H          6.62054       -0.76869       -0.70559
H          6.60010       -0.04799        1.00958
H          4.51111        0.20625       -1.21312
H          5.47165        1.22595        2.52401
H          5.37571        2.82183        6.11526
H          5.38945        0.46318        4.11580
H          4.56992        0.48859        5.72660
H          6.35595        0.57589        5.63686
H          6.63276        2.58120        3.30828
H          7.50441        2.65394        4.87546
H          6.57144        4.07735        4.32563
H          4.67030        5.07933        3.39905
H          1.66879        5.38310        3.98343
H          2.40427        4.94630        2.39197
H          2.73149        6.54576        3.14529
H          3.21590        5.53547        6.07463
H          4.22178        6.71376        5.17809
H          4.98883        5.24478        5.86449
H          2.35157        2.80225        6.32036
H          0.73919        2.11265        3.78318
H          0.77855        3.71930        4.60487
H          0.09971        2.28872        5.44313
H          2.19955        0.21563        4.64939
H          1.58243        0.47337        6.30184
H          3.34656        0.48948        6.00401
H          1.74364        3.06636        1.88398
H          1.06022        1.84164       -0.64380
H          3.75043        1.56582       -2.07866
H          2.03614        1.61035       -2.80045
48

C          4.76906        3.54852       -1.40574
C          4.15628        2.42215       -1.02453
C          3.82530        2.11945        0.38908
C          4.08284        2.91324        1.49477
N          3.62270        2.31380        2.60870
Si         3.71530        2.99890        4.27630
C          5.34960        2.42620        5.07840
C          5.41625        0.89716        5.13846
C          6.58045        2.96882        4.34503
C          3.80260        4.89460        4.06590
C          3.90364        5.63263        5.40174
C          4.91033        5.34165        3.11086
C          2.27440        2.29580        5.33540
C          0.89819        2.62716        4.74865
C          2.36851        0.78386        5.58053
C          3.07998        1.13762        2.23688
C          3.18300        0.98349        0.86450
C          2.69825       -0.15993        0.05423
C          1.63539       -0.89864        0.39586
H          4.98343        3.71498       -2.45671
H          5.06457        4.31273       -0.69666
H          3.89254        1.70737       -1.79548
H          4.56362        3.88151        1.48346
H          5.37571        2.82183        6.11526
H          5.38945        0.46318        4.11580
H          4.56992        0.48859        5.72660
H          6.35595        0.57589        5.63686
H          6.63276        2.58120        3.30828
H          7.50441        2.65394        4.87546
H          6.57144        4.07735        4.32563
H          2.83333        5.18751        3.61153
H          4.87241        5.44780        5.89567
H          3.07917        5.32442        6.07885
H          3.82018        6.72732        5.23293
H          5.91091        5.12863        3.52722
H          4.83970        6.43690        2.93995
H          4.80338        4.83848        2.12683
H          2.35157        2.80225        6.32036
H          0.73919        2.11265        3.78318
H          0.77855        3.71930        4.60487
H          0.09971        2.28872        5.44313
H          2.19955        0.21563        4.64939
H          1.58243        0.47337        6.30184
H          3.34656        0.48948        6.00401
H          2.63928        0.42718        2.91850
H          3.21530       -0.41838       -0.86267
H          1.06135       -0.70305        1.29410
H          1.32502       -1.72113       -0.24075
