
  xtb     02032211363D
 xtb: 6.4.1 (23d549d)
 42 42  0     0  0            999 V2000
    0.5023    3.0583   -4.3238 C   0  0  0  0  0  0  0  0  0  0  0  0
   -0.1214    3.7301   -3.3635 C   0  0  0  0  0  0  0  0  0  0  0  0
   -0.7092    3.1843   -2.1449 C   0  0  0  0  0  0  0  0  0  0  0  0
   -1.3945    4.0427   -1.2927 C   0  0  0  0  0  0  0  0  0  0  0  0
   -1.9854    3.5851   -0.1148 C   0  0  0  0  0  0  0  0  0  0  0  0
   -2.6952    4.5388    0.7312 C   0  0  0  0  0  0  0  0  0  0  0  0
   -3.3642    4.2682    1.8450 C   0  0  0  0  0  0  0  0  0  0  0  0
   -1.8702    2.2378    0.2035 C   0  0  0  0  0  0  0  0  0  0  0  0
   -1.1836    1.3621   -0.6355 C   0  0  0  0  0  0  0  0  0  0  0  0
   -1.1388    0.0687   -0.2132 O   0  0  0  0  0  0  0  0  0  0  0  0
   -0.4494   -0.8848   -0.9923 C   0  0  0  0  0  0  0  0  0  0  0  0
   -0.5433   -2.2327   -0.2809 C   0  0  0  0  0  0  0  0  0  0  0  0
    0.0944   -2.2251    1.1093 C   0  0  0  0  0  0  0  0  0  0  0  0
    1.6027   -1.9702    1.1337 C   0  0  0  0  0  0  0  0  0  0  0  0
    2.4385   -2.9562    0.3128 C   0  0  0  0  0  0  0  0  0  0  0  0
    2.2225   -4.4184    0.7255 C   0  0  0  0  0  0  0  0  0  0  0  0
    2.4134   -4.6272    2.2164 C   0  0  0  0  0  0  0  0  0  0  0  0
    1.5538   -5.0093    2.9549 O   0  0  0  0  0  0  0  0  0  0  0  0
    3.6485   -4.3574    2.6777 O   0  0  0  0  0  0  0  0  0  0  0  0
   -0.6061    1.8335   -1.8056 C   0  0  0  0  0  0  0  0  0  0  0  0
    0.8999    3.5604   -5.1892 H   0  0  0  0  0  0  0  0  0  0  0  0
    0.6423    1.9911   -4.2980 H   0  0  0  0  0  0  0  0  0  0  0  0
   -0.2291    4.8031   -3.4670 H   0  0  0  0  0  0  0  0  0  0  0  0
   -1.4758    5.0892   -1.5515 H   0  0  0  0  0  0  0  0  0  0  0  0
   -2.6557    5.5632    0.3804 H   0  0  0  0  0  0  0  0  0  0  0  0
   -3.4492    3.2732    2.2463 H   0  0  0  0  0  0  0  0  0  0  0  0
   -3.8603    5.0444    2.4021 H   0  0  0  0  0  0  0  0  0  0  0  0
   -2.3020    1.8330    1.1036 H   0  0  0  0  0  0  0  0  0  0  0  0
    0.6003   -0.5863   -1.1176 H   0  0  0  0  0  0  0  0  0  0  0  0
   -0.9085   -0.9629   -1.9888 H   0  0  0  0  0  0  0  0  0  0  0  0
   -0.0862   -2.9910   -0.9178 H   0  0  0  0  0  0  0  0  0  0  0  0
   -1.6002   -2.4803   -0.1696 H   0  0  0  0  0  0  0  0  0  0  0  0
   -0.1161   -3.1768    1.5989 H   0  0  0  0  0  0  0  0  0  0  0  0
   -0.3879   -1.4418    1.6956 H   0  0  0  0  0  0  0  0  0  0  0  0
    1.9274   -2.0134    2.1763 H   0  0  0  0  0  0  0  0  0  0  0  0
    1.8104   -0.9602    0.7746 H   0  0  0  0  0  0  0  0  0  0  0  0
    3.4937   -2.6858    0.4246 H   0  0  0  0  0  0  0  0  0  0  0  0
    2.1980   -2.8579   -0.7472 H   0  0  0  0  0  0  0  0  0  0  0  0
    2.9275   -5.0605    0.1893 H   0  0  0  0  0  0  0  0  0  0  0  0
    1.2119   -4.7364    0.4726 H   0  0  0  0  0  0  0  0  0  0  0  0
    4.2410   -4.0495    1.9796 H   0  0  0  0  0  0  0  0  0  0  0  0
   -0.0724    1.1659   -2.4611 H   0  0  0  0  0  0  0  0  0  0  0  0
  1  2  2  0  0  0  0
  2  3  1  0  0  0  0
  3  4  4  0  0  0  0
  4  5  4  0  0  0  0
  5  6  1  0  0  0  0
  6  7  2  0  0  0  0
  5  8  4  0  0  0  0
  8  9  4  0  0  0  0
  9 10  1  0  0  0  0
 10 11  1  0  0  0  0
 11 12  1  0  0  0  0
 12 13  1  0  0  0  0
 13 14  1  0  0  0  0
 14 15  1  0  0  0  0
 15 16  1  0  0  0  0
 16 17  1  0  0  0  0
 17 18  2  0  0  0  0
 17 19  1  0  0  0  0
  3 20  4  0  0  0  0
  9 20  4  0  0  0  0
  1 21  1  0  0  0  0
  1 22  1  0  0  0  0
  2 23  1  0  0  0  0
  4 24  1  0  0  0  0
  6 25  1  0  0  0  0
  7 26  1  0  0  0  0
  7 27  1  0  0  0  0
  8 28  1  0  0  0  0
 11 29  1  0  0  0  0
 11 30  1  0  0  0  0
 12 31  1  0  0  0  0
 12 32  1  0  0  0  0
 13 33  1  0  0  0  0
 13 34  1  0  0  0  0
 14 35  1  0  0  0  0
 14 36  1  0  0  0  0
 15 37  1  0  0  0  0
 15 38  1  0  0  0  0
 16 39  1  0  0  0  0
 16 40  1  0  0  0  0
 19 41  1  0  0  0  0
 20 42  1  0  0  0  0
M  END
