
 OpenBabel02012213393D

 35 38  0  0  0  0  0  0  0  0999 V2000
    1.0911   -0.1633   -0.0582 C   0  0  0  0  0  0  0  0  0  0  0  0
    2.5909   -0.1325   -0.0405 C   0  0  0  0  0  0  0  0  0  0  0  0
    3.3341   -1.3368   -0.0536 C   0  0  0  0  0  0  0  0  0  0  0  0
    4.7363   -1.3097   -0.0546 C   0  0  0  0  0  0  0  0  0  0  0  0
    3.2593    1.1104   -0.0159 C   0  0  0  0  0  0  0  0  0  0  0  0
    4.6633    1.1216    0.0041 C   0  0  0  0  0  0  0  0  0  0  0  0
    5.3658   -0.0675   -0.0319 C   0  0  0  0  0  0  0  0  0  0  0  0
    6.6972    0.2602   -0.0427 C   0  0  0  0  0  0  0  0  0  0  0  0
    7.8326   -0.5485   -0.0707 C   0  0  0  0  0  0  0  0  0  0  0  0
    9.0865    0.0807   -0.0549 C   0  0  0  0  0  0  0  0  0  0  0  0
    9.1781    1.4859   -0.0032 C   0  0  0  0  0  0  0  0  0  0  0  0
    8.0178    2.2802    0.0238 C   0  0  0  0  0  0  0  0  0  0  0  0
    6.7676    1.6405   -0.0121 C   0  0  0  0  0  0  0  0  0  0  0  0
    5.5164    2.1899    0.0185 N   0  0  0  0  0  0  0  0  0  0  0  0
    5.1705    3.5987    0.0641 C   0  0  0  0  0  0  0  0  0  0  0  0
    5.9030    4.5499   -0.6754 C   0  0  0  0  0  0  0  0  0  0  0  0
    5.5687    5.9066   -0.6253 C   0  0  0  0  0  0  0  0  0  0  0  0
    4.5025    6.3373    0.1644 C   0  0  0  0  0  0  0  0  0  0  0  0
    3.7669    5.4112    0.9038 C   0  0  0  0  0  0  0  0  0  0  0  0
    4.0949    4.0533    0.8543 C   0  0  0  0  0  0  0  0  0  0  0  0
    0.7046   -1.2045   -0.0767 H   0  0  0  0  0  0  0  0  0  0  0  0
    0.7180    0.3660   -0.9602 H   0  0  0  0  0  0  0  0  0  0  0  0
    0.6971    0.3418    0.8487 H   0  0  0  0  0  0  0  0  0  0  0  0
    2.8275   -2.2936   -0.0731 H   0  0  0  0  0  0  0  0  0  0  0  0
    5.3068   -2.2292   -0.0765 H   0  0  0  0  0  0  0  0  0  0  0  0
    2.6781    2.0191   -0.0277 H   0  0  0  0  0  0  0  0  0  0  0  0
    7.7555   -1.6275   -0.0984 H   0  0  0  0  0  0  0  0  0  0  0  0
    9.9884   -0.5171   -0.0729 H   0  0  0  0  0  0  0  0  0  0  0  0
   10.1516    1.9582    0.0217 H   0  0  0  0  0  0  0  0  0  0  0  0
    8.1239    3.3510    0.0855 H   0  0  0  0  0  0  0  0  0  0  0  0
    6.7185    4.2498   -1.3166 H   0  0  0  0  0  0  0  0  0  0  0  0
    6.1359    6.6248   -1.2034 H   0  0  0  0  0  0  0  0  0  0  0  0
    4.2467    7.3882    0.2038 H   0  0  0  0  0  0  0  0  0  0  0  0
    2.9436    5.7459    1.5217 H   0  0  0  0  0  0  0  0  0  0  0  0
    3.5208    3.3687    1.4611 H   0  0  0  0  0  0  0  0  0  0  0  0
  1  2  1  0  0  0  0
  1 21  1  0  0  0  0
  1 22  1  0  0  0  0
  1 23  1  0  0  0  0
  2  3  2  0  0  0  0
  2  5  1  0  0  0  0
  3  4  1  0  0  0  0
  3 24  1  0  0  0  0
  4  7  2  0  0  0  0
  4 25  1  0  0  0  0
  5  6  2  0  0  0  0
  5 26  1  0  0  0  0
  6  7  1  0  0  0  0
  6 14  1  0  0  0  0
  7  8  1  0  0  0  0
  8  9  2  0  0  0  0
  8 13  1  0  0  0  0
  9 10  1  0  0  0  0
  9 27  1  0  0  0  0
 10 11  2  0  0  0  0
 10 28  1  0  0  0  0
 11 12  1  0  0  0  0
 11 29  1  0  0  0  0
 12 13  2  0  0  0  0
 12 30  1  0  0  0  0
 13 14  1  0  0  0  0
 14 15  1  0  0  0  0
 15 16  1  0  0  0  0
 15 20  2  0  0  0  0
 16 17  2  0  0  0  0
 16 31  1  0  0  0  0
 17 18  1  0  0  0  0
 17 32  1  0  0  0  0
 18 19  2  0  0  0  0
 18 33  1  0  0  0  0
 19 20  1  0  0  0  0
 19 34  1  0  0  0  0
 20 35  1  0  0  0  0
M  END
