
  xtb     02032211213D
 xtb: 6.4.1 (23d549d)
 21 21  0     0  0            999 V2000
    1.6025    0.1137    0.6907 c   0  0  0  0  0  0  0  0  0  0  0  0
    1.9461    0.1739   -0.5895 c   0  0  0  0  0  0  0  0  0  0  0  0
    2.8385   -0.7638   -1.2635 c   0  0  0  0  0  0  0  0  0  0  0  0
    3.8603   -1.4201   -0.5967 c   0  0  0  0  0  0  0  0  0  0  0  0
    4.7459   -2.2904   -1.2442 c   0  0  0  0  0  0  0  0  0  0  0  0
    5.7965   -2.9411   -0.4773 c   0  0  0  0  0  0  0  0  0  0  0  0
    6.7208   -3.7863   -0.9195 c   0  0  0  0  0  0  0  0  0  0  0  0
    4.5122   -2.4272   -2.6143 c   0  0  0  0  0  0  0  0  0  0  0  0
    5.2928   -3.2132   -3.3743 f   0  0  0  0  0  0  0  0  0  0  0  0
    3.5500   -1.8414   -3.2814 n   0  0  0  0  0  0  0  0  0  0  0  0
    2.7124   -1.0262   -2.6479 c   0  0  0  0  0  0  0  0  0  0  0  0
    1.7603   -0.4423   -3.4274 n   0  0  0  0  0  0  0  0  0  0  0  0
    0.9508    0.8465    1.1342 h   0  0  0  0  0  0  0  0  0  0  0  0
    1.9476   -0.6719    1.3407 h   0  0  0  0  0  0  0  0  0  0  0  0
    1.5569    0.9732   -1.2081 h   0  0  0  0  0  0  0  0  0  0  0  0
    3.9987   -1.2367    0.4590 h   0  0  0  0  0  0  0  0  0  0  0  0
    5.7865   -2.6777    0.5745 h   0  0  0  0  0  0  0  0  0  0  0  0
    6.7949   -4.0952   -1.9462 h   0  0  0  0  0  0  0  0  0  0  0  0
    7.4493   -4.2026   -0.2441 h   0  0  0  0  0  0  0  0  0  0  0  0
    1.6868   -0.8147   -4.3599 h   0  0  0  0  0  0  0  0  0  0  0  0
    0.9153   -0.1092   -2.9983 h   0  0  0  0  0  0  0  0  0  0  0  0
  1  2  2  0  0  0  0
  2  3  1  0  0  0  0
  3  4  4  0  0  0  0
  4  5  4  0  0  0  0
  5  6  1  0  0  0  0
  6  7  2  0  0  0  0
  5  8  4  0  0  0  0
  8  9  1  0  0  0  0
  8 10  4  0  0  0  0
  3 11  4  0  0  0  0
 10 11  4  0  0  0  0
 11 12  4  0  0  0  0
  1 13  1  0  0  0  0
  1 14  1  0  0  0  0
  2 15  1  0  0  0  0
  4 16  1  0  0  0  0
  6 17  1  0  0  0  0
  7 18  1  0  0  0  0
  7 19  1  0  0  0  0
 12 20  1  0  0  0  0
 12 21  1  0  0  0  0
M  END
