
  xtb     02032211353D
 xtb: 6.4.1 (23d549d)
 16 16  0     0  0            999 V2000
    4.1716   -1.3321    0.0027 C   0  0  0  0  0  0  0  0  0  0  0  0
    3.5345   -0.1688   -0.0016 C   0  0  0  0  0  0  0  0  0  0  0  0
    2.0943   -0.0267    0.0001 C   0  0  0  0  0  0  0  0  0  0  0  0
    1.0830   -1.0248    0.0052 C   0  0  0  0  0  0  0  0  0  0  0  0
   -0.0877   -0.3088    0.0034 C   0  0  0  0  0  0  0  0  0  0  0  0
   -1.4531   -0.7626    0.0055 C   0  0  0  0  0  0  0  0  0  0  0  0
   -2.5178    0.0314    0.0000 C   0  0  0  0  0  0  0  0  0  0  0  0
   -2.5235    1.3488   -0.0079 F   0  0  0  0  0  0  0  0  0  0  0  0
   -3.7634   -0.4238    0.0017 F   0  0  0  0  0  0  0  0  0  0  0  0
    0.2039    1.0064   -0.0021 O   0  0  0  0  0  0  0  0  0  0  0  0
    1.5390    1.1659   -0.0040 N   0  0  0  0  0  0  0  0  0  0  0  0
    5.2463   -1.3830    0.0008 H   0  0  0  0  0  0  0  0  0  0  0  0
    3.6492   -2.2740    0.0084 H   0  0  0  0  0  0  0  0  0  0  0  0
    4.0713    0.7686   -0.0072 H   0  0  0  0  0  0  0  0  0  0  0  0
    1.1972   -2.0873    0.0093 H   0  0  0  0  0  0  0  0  0  0  0  0
   -1.6145   -1.8279    0.0116 H   0  0  0  0  0  0  0  0  0  0  0  0
  1  2  2  0  0  0  0
  2  3  1  0  0  0  0
  3  4  4  0  0  0  0
  4  5  2  0  0  0  0
  5  6  1  0  0  0  0
  6  7  2  0  0  0  0
  7  8  1  0  0  0  0
  7  9  1  0  0  0  0
  5 10  1  0  0  0  0
  3 11  2  0  0  0  0
 10 11  1  0  0  0  0
  1 12  1  0  0  0  0
  1 13  1  0  0  0  0
  2 14  1  0  0  0  0
  4 15  1  0  0  0  0
  6 16  1  0  0  0  0
M  END
