
  xtb     02032211353D
 xtb: 6.4.1 (23d549d)
 27 27  0     0  0            999 V2000
   -3.6436   -0.3844    0.1969 C   0  0  0  0  0  0  0  0  0  0  0  0
   -2.4658   -0.7718   -0.2740 C   0  0  0  0  0  0  0  0  0  0  0  0
   -1.2187   -0.0181   -0.1754 C   0  0  0  0  0  0  0  0  0  0  0  0
   -1.1984    1.3655   -0.0184 C   0  0  0  0  0  0  0  0  0  0  0  0
   -0.0071    2.0693    0.0629 C   0  0  0  0  0  0  0  0  0  0  0  0
   -0.0113    3.5627    0.1990 C   0  0  0  0  0  0  0  0  0  0  0  0
    1.1886    1.3728   -0.0179 C   0  0  0  0  0  0  0  0  0  0  0  0
    1.2175   -0.0105   -0.1756 C   0  0  0  0  0  0  0  0  0  0  0  0
    2.4693   -0.7562   -0.2758 C   0  0  0  0  0  0  0  0  0  0  0  0
    3.6445   -0.3628    0.1963 C   0  0  0  0  0  0  0  0  0  0  0  0
    0.0015   -0.7005   -0.2629 C   0  0  0  0  0  0  0  0  0  0  0  0
    0.0058   -2.0775   -0.4325 O   0  0  0  0  0  0  0  0  0  0  0  0
    0.0148   -2.7965    0.7805 C   0  0  0  0  0  0  0  0  0  0  0  0
   -4.5217   -0.9977    0.0868 H   0  0  0  0  0  0  0  0  0  0  0  0
   -3.7804    0.5486    0.7176 H   0  0  0  0  0  0  0  0  0  0  0  0
   -2.3709   -1.7333   -0.7620 H   0  0  0  0  0  0  0  0  0  0  0  0
   -2.1341    1.9029    0.0205 H   0  0  0  0  0  0  0  0  0  0  0  0
   -0.9018    3.9024    0.7225 H   0  0  0  0  0  0  0  0  0  0  0  0
   -0.0032    4.0256   -0.7883 H   0  0  0  0  0  0  0  0  0  0  0  0
    0.8686    3.9058    0.7382 H   0  0  0  0  0  0  0  0  0  0  0  0
    2.1210    1.9161    0.0200 H   0  0  0  0  0  0  0  0  0  0  0  0
    2.3804   -1.7173   -0.7660 H   0  0  0  0  0  0  0  0  0  0  0  0
    3.7752    0.5698    0.7194 H   0  0  0  0  0  0  0  0  0  0  0  0
    4.5264   -0.9703    0.0851 H   0  0  0  0  0  0  0  0  0  0  0  0
   -0.8764   -2.5763    1.3798 H   0  0  0  0  0  0  0  0  0  0  0  0
    0.9073   -2.5649    1.3736 H   0  0  0  0  0  0  0  0  0  0  0  0
    0.0207   -3.8516    0.5112 H   0  0  0  0  0  0  0  0  0  0  0  0
  1  2  2  0  0  0  0
  2  3  1  0  0  0  0
  3  4  4  0  0  0  0
  4  5  4  0  0  0  0
  5  6  1  0  0  0  0
  5  7  4  0  0  0  0
  7  8  4  0  0  0  0
  8  9  1  0  0  0  0
  9 10  2  0  0  0  0
  3 11  4  0  0  0  0
  8 11  4  0  0  0  0
 11 12  1  0  0  0  0
 12 13  1  0  0  0  0
  1 14  1  0  0  0  0
  1 15  1  0  0  0  0
  2 16  1  0  0  0  0
  4 17  1  0  0  0  0
  6 18  1  0  0  0  0
  6 19  1  0  0  0  0
  6 20  1  0  0  0  0
  7 21  1  0  0  0  0
  9 22  1  0  0  0  0
 10 23  1  0  0  0  0
 10 24  1  0  0  0  0
 13 25  1  0  0  0  0
 13 26  1  0  0  0  0
 13 27  1  0  0  0  0
M  END
