
 OpenBabel02032211013D

 34 35  0  0  0  0  0  0  0  0999 V2000
    2.2584   -1.4607    0.0065 C   0  0  0  0  0  0  0  0  0  0  0  0
    2.4163   -0.1294   -0.0164 C   0  0  0  0  0  0  0  0  0  0  0  0
    3.0756    0.6048   -1.1039 C   0  0  0  0  0  0  0  0  0  0  0  0
    4.1147    0.0341   -1.8490 C   0  0  0  0  0  0  0  0  0  0  0  0
    4.7345    0.7226   -2.9083 C   0  0  0  0  0  0  0  0  0  0  0  0
    5.7833    0.0510   -3.7004 C   0  0  0  0  0  0  0  0  0  0  0  0
    6.6280   -0.8795   -3.2289 C   0  0  0  0  0  0  0  0  0  0  0  0
    4.2931    2.0263   -3.2257 C   0  0  0  0  0  0  0  0  0  0  0  0
    4.8610    2.6219   -4.3242 O   0  0  0  0  0  0  0  0  0  0  0  0
    4.8646    4.0504   -4.3696 C   0  0  0  0  0  0  0  0  0  0  0  0
    5.5348    4.5243   -5.6416 C   0  0  0  0  0  0  0  0  0  0  0  0
    5.4006    3.8141   -6.8445 C   0  0  0  0  0  0  0  0  0  0  0  0
    6.0125    4.2705   -8.0134 C   0  0  0  0  0  0  0  0  0  0  0  0
    6.7481    5.4532   -7.9996 C   0  0  0  0  0  0  0  0  0  0  0  0
    6.8591    6.1884   -6.8211 C   0  0  0  0  0  0  0  0  0  0  0  0
    6.2509    5.7308   -5.6500 C   0  0  0  0  0  0  0  0  0  0  0  0
    3.2813    2.6178   -2.4625 C   0  0  0  0  0  0  0  0  0  0  0  0
    2.6950    1.9110   -1.4106 C   0  0  0  0  0  0  0  0  0  0  0  0
    1.7202    2.5127   -0.7099 F   0  0  0  0  0  0  0  0  0  0  0  0
    1.7511   -1.9452    0.8330 H   0  0  0  0  0  0  0  0  0  0  0  0
    2.6070   -2.1060   -0.7964 H   0  0  0  0  0  0  0  0  0  0  0  0
    2.0122    0.4704    0.7973 H   0  0  0  0  0  0  0  0  0  0  0  0
    4.4401   -0.9757   -1.6110 H   0  0  0  0  0  0  0  0  0  0  0  0
    5.8623    0.3538   -4.7410 H   0  0  0  0  0  0  0  0  0  0  0  0
    6.6290   -1.2105   -2.1984 H   0  0  0  0  0  0  0  0  0  0  0  0
    7.3652   -1.3307   -3.8863 H   0  0  0  0  0  0  0  0  0  0  0  0
    5.4197    4.4260   -3.5008 H   0  0  0  0  0  0  0  0  0  0  0  0
    3.8468    4.4549   -4.3716 H   0  0  0  0  0  0  0  0  0  0  0  0
    4.8227    2.8924   -6.8752 H   0  0  0  0  0  0  0  0  0  0  0  0
    5.9156    3.7005   -8.9337 H   0  0  0  0  0  0  0  0  0  0  0  0
    7.2315    5.8034   -8.9077 H   0  0  0  0  0  0  0  0  0  0  0  0
    7.4216    7.1184   -6.8136 H   0  0  0  0  0  0  0  0  0  0  0  0
    6.3446    6.3221   -4.7418 H   0  0  0  0  0  0  0  0  0  0  0  0
    2.8939    3.6074   -2.6697 H   0  0  0  0  0  0  0  0  0  0  0  0
  1  2  2  0  0  0  0
  1 20  1  0  0  0  0
  1 21  1  0  0  0  0
  2  3  1  0  0  0  0
  2 22  1  0  0  0  0
  3  4  1  0  0  0  0
  3 18  2  0  0  0  0
  4  5  2  0  0  0  0
  4 23  1  0  0  0  0
  5  6  1  0  0  0  0
  5  8  1  0  0  0  0
  6  7  2  0  0  0  0
  6 24  1  0  0  0  0
  7 25  1  0  0  0  0
  7 26  1  0  0  0  0
  8  9  1  0  0  0  0
  8 17  2  0  0  0  0
  9 10  1  0  0  0  0
 10 11  1  0  0  0  0
 10 27  1  0  0  0  0
 10 28  1  0  0  0  0
 11 12  1  0  0  0  0
 11 16  2  0  0  0  0
 12 13  2  0  0  0  0
 12 29  1  0  0  0  0
 13 14  1  0  0  0  0
 13 30  1  0  0  0  0
 14 15  2  0  0  0  0
 14 31  1  0  0  0  0
 15 16  1  0  0  0  0
 15 32  1  0  0  0  0
 16 33  1  0  0  0  0
 17 18  1  0  0  0  0
 17 34  1  0  0  0  0
 18 19  1  0  0  0  0
M  END
