
 OpenBabel08112216343D

 24 24  0  0  0  0  0  0  0  0999 V2000
    1.0855    0.3785   -0.1751 C   0  0  0  0  0  0  0  0  0  0  0  0
    2.2547   -0.2556   -0.0347 C   0  0  0  0  0  0  0  0  0  0  0  0
    3.0233   -0.2384    1.2175 C   0  0  0  0  0  0  0  0  0  0  0  0
    2.6729   -1.1811    2.1976 C   0  0  0  0  0  0  0  0  0  0  0  0
    3.3848   -1.2707    3.3963 C   0  0  0  0  0  0  0  0  0  0  0  0
    4.4538   -0.4130    3.6327 C   0  0  0  0  0  0  0  0  0  0  0  0
    5.2374   -0.3937    4.7535 O   0  0  0  0  0  0  0  0  0  0  0  0
    4.9696   -1.3766    5.7454 C   0  0  0  0  0  0  0  0  0  0  0  0
    4.7917    0.5444    2.6684 C   0  0  0  0  0  0  0  0  0  0  0  0
    4.0982    0.6465    1.4492 C   0  0  0  0  0  0  0  0  0  0  0  0
    4.4386    1.7062    0.4796 C   0  0  0  0  0  0  0  0  0  0  0  0
    5.6476    2.2339    0.2548 C   0  0  0  0  0  0  0  0  0  0  0  0
    6.7428    1.8075    0.9161 F   0  0  0  0  0  0  0  0  0  0  0  0
    5.7715    3.2136   -0.6657 F   0  0  0  0  0  0  0  0  0  0  0  0
    0.5412    0.3304   -1.1133 H   0  0  0  0  0  0  0  0  0  0  0  0
    0.6464    0.9583    0.6317 H   0  0  0  0  0  0  0  0  0  0  0  0
    2.6822   -0.8326   -0.8513 H   0  0  0  0  0  0  0  0  0  0  0  0
    1.8409   -1.8621    2.0270 H   0  0  0  0  0  0  0  0  0  0  0  0
    3.0777   -2.0191    4.1188 H   0  0  0  0  0  0  0  0  0  0  0  0
    5.6876   -1.2349    6.5588 H   0  0  0  0  0  0  0  0  0  0  0  0
    5.1101   -2.3878    5.3490 H   0  0  0  0  0  0  0  0  0  0  0  0
    3.9653   -1.2508    6.1627 H   0  0  0  0  0  0  0  0  0  0  0  0
    5.6138    1.2200    2.8963 H   0  0  0  0  0  0  0  0  0  0  0  0
    3.6136    2.0958   -0.1104 H   0  0  0  0  0  0  0  0  0  0  0  0
  1  2  2  0  0  0  0
  1 15  1  0  0  0  0
  1 16  1  0  0  0  0
  2  3  1  0  0  0  0
  2 17  1  0  0  0  0
  3  4  1  0  0  0  0
  3 10  2  0  0  0  0
  4  5  2  0  0  0  0
  4 18  1  0  0  0  0
  5  6  1  0  0  0  0
  5 19  1  0  0  0  0
  6  7  1  0  0  0  0
  6  9  2  0  0  0  0
  7  8  1  0  0  0  0
  8 20  1  0  0  0  0
  8 21  1  0  0  0  0
  8 22  1  0  0  0  0
  9 10  1  0  0  0  0
  9 23  1  0  0  0  0
 10 11  1  0  0  0  0
 11 12  2  0  0  0  0
 11 24  1  0  0  0  0
 12 13  1  0  0  0  0
 12 14  1  0  0  0  0
M  END
