
 OpenBabel02032210523D

 16 16  0  0  0  0  0  0  0  0999 V2000
    2.7446   -0.7828    1.1346 C   0  0  0  0  0  0  0  0  0  0  0  0
    2.3254   -0.1567    0.0312 C   0  0  0  0  0  0  0  0  0  0  0  0
    3.0330   -0.2779   -1.2559 C   0  0  0  0  0  0  0  0  0  0  0  0
    2.6638    0.3308   -2.4333 C   0  0  0  0  0  0  0  0  0  0  0  0
    3.6218   -0.0807   -3.3419 C   0  0  0  0  0  0  0  0  0  0  0  0
    3.7468    0.2523   -4.7778 C   0  0  0  0  0  0  0  0  0  0  0  0
    2.9057    1.0450   -5.4577 C   0  0  0  0  0  0  0  0  0  0  0  0
    1.8307    1.6313   -4.8715 F   0  0  0  0  0  0  0  0  0  0  0  0
    3.1294    1.2737   -6.7780 F   0  0  0  0  0  0  0  0  0  0  0  0
    4.4700   -0.8662   -2.7157 O   0  0  0  0  0  0  0  0  0  0  0  0
    4.1472   -1.0071   -1.4617 N   0  0  0  0  0  0  0  0  0  0  0  0
    2.1949   -0.6678    2.0632 H   0  0  0  0  0  0  0  0  0  0  0  0
    3.6301   -1.4109    1.1271 H   0  0  0  0  0  0  0  0  0  0  0  0
    1.4341    0.4616    0.0836 H   0  0  0  0  0  0  0  0  0  0  0  0
    1.8125    0.9785   -2.5845 H   0  0  0  0  0  0  0  0  0  0  0  0
    4.5848   -0.1819   -5.3150 H   0  0  0  0  0  0  0  0  0  0  0  0
  1  2  2  0  0  0  0
  1 12  1  0  0  0  0
  1 13  1  0  0  0  0
  2  3  1  0  0  0  0
  2 14  1  0  0  0  0
  3  4  1  0  0  0  0
  3 11  2  0  0  0  0
  4  5  2  0  0  0  0
  4 15  1  0  0  0  0
  5  6  1  0  0  0  0
  5 10  1  0  0  0  0
  6  7  2  0  0  0  0
  6 16  1  0  0  0  0
  7  8  1  0  0  0  0
  7  9  1  0  0  0  0
 10 11  1  0  0  0  0
M  END
