
  xtb     02032211353D
 xtb: 6.4.1 (23d549d)
 28 29  0     0  0            999 V2000
    4.0778   -1.9209    0.2937 C   0  0  0  0  0  0  0  0  0  0  0  0
    4.1178   -0.6040    0.1368 C   0  0  0  0  0  0  0  0  0  0  0  0
    2.9275    0.2332    0.0218 C   0  0  0  0  0  0  0  0  0  0  0  0
    3.0476    1.6231   -0.0762 C   0  0  0  0  0  0  0  0  0  0  0  0
    1.8987    2.3886   -0.1729 C   0  0  0  0  0  0  0  0  0  0  0  0
    0.6697    1.7546   -0.1702 C   0  0  0  0  0  0  0  0  0  0  0  0
    0.6409    0.3615   -0.0741 C   0  0  0  0  0  0  0  0  0  0  0  0
   -0.6409   -0.3614   -0.0741 C   0  0  0  0  0  0  0  0  0  0  0  0
   -0.6696   -1.7545   -0.1705 C   0  0  0  0  0  0  0  0  0  0  0  0
   -1.8986   -2.3885   -0.1731 C   0  0  0  0  0  0  0  0  0  0  0  0
   -3.0476   -1.6232   -0.0761 C   0  0  0  0  0  0  0  0  0  0  0  0
   -2.9275   -0.2333    0.0220 C   0  0  0  0  0  0  0  0  0  0  0  0
   -4.1178    0.6039    0.1372 C   0  0  0  0  0  0  0  0  0  0  0  0
   -4.0780    1.9208    0.2932 C   0  0  0  0  0  0  0  0  0  0  0  0
   -1.7430    0.3706    0.0177 N   0  0  0  0  0  0  0  0  0  0  0  0
    1.7430   -0.3706    0.0175 N   0  0  0  0  0  0  0  0  0  0  0  0
    4.9716   -2.5147    0.3795 H   0  0  0  0  0  0  0  0  0  0  0  0
    3.1336   -2.4346    0.3421 H   0  0  0  0  0  0  0  0  0  0  0  0
    5.0626   -0.0779    0.0926 H   0  0  0  0  0  0  0  0  0  0  0  0
    4.0240    2.0844   -0.0736 H   0  0  0  0  0  0  0  0  0  0  0  0
    1.9623    3.4650   -0.2497 H   0  0  0  0  0  0  0  0  0  0  0  0
   -0.2585    2.2962   -0.2432 H   0  0  0  0  0  0  0  0  0  0  0  0
    0.2586   -2.2961   -0.2436 H   0  0  0  0  0  0  0  0  0  0  0  0
   -1.9621   -3.4650   -0.2501 H   0  0  0  0  0  0  0  0  0  0  0  0
   -4.0239   -2.0845   -0.0735 H   0  0  0  0  0  0  0  0  0  0  0  0
   -5.0626    0.0776    0.0937 H   0  0  0  0  0  0  0  0  0  0  0  0
   -3.1338    2.4348    0.3409 H   0  0  0  0  0  0  0  0  0  0  0  0
   -4.9718    2.5146    0.3791 H   0  0  0  0  0  0  0  0  0  0  0  0
  1  2  2  0  0  0  0
  2  3  1  0  0  0  0
  3  4  4  0  0  0  0
  4  5  4  0  0  0  0
  5  6  4  0  0  0  0
  6  7  4  0  0  0  0
  7  8  1  0  0  0  0
  8  9  4  0  0  0  0
  9 10  4  0  0  0  0
 10 11  4  0  0  0  0
 11 12  4  0  0  0  0
 12 13  1  0  0  0  0
 13 14  2  0  0  0  0
  8 15  4  0  0  0  0
 12 15  4  0  0  0  0
  3 16  4  0  0  0  0
  7 16  4  0  0  0  0
  1 17  1  0  0  0  0
  1 18  1  0  0  0  0
  2 19  1  0  0  0  0
  4 20  1  0  0  0  0
  5 21  1  0  0  0  0
  6 22  1  0  0  0  0
  9 23  1  0  0  0  0
 10 24  1  0  0  0  0
 11 25  1  0  0  0  0
 13 26  1  0  0  0  0
 14 27  1  0  0  0  0
 14 28  1  0  0  0  0
M  END
