
  xtb     02032211353D
 xtb: 6.4.1 (23d549d)
 38 39  0     0  0            999 V2000
    4.7444   -2.7830    0.0915 C   0  0  0  0  0  0  0  0  0  0  0  0
    4.3363   -1.5730   -0.2726 C   0  0  0  0  0  0  0  0  0  0  0  0
    3.0426   -0.9668    0.0106 C   0  0  0  0  0  0  0  0  0  0  0  0
    2.0379   -1.6061    0.7406 C   0  0  0  0  0  0  0  0  0  0  0  0
    0.8206   -0.9956    0.9363 C   0  0  0  0  0  0  0  0  0  0  0  0
    0.5569    0.2829    0.4402 C   0  0  0  0  0  0  0  0  0  0  0  0
   -0.7112    0.7484    0.6494 O   0  0  0  0  0  0  0  0  0  0  0  0
   -1.3509    1.5043   -0.3579 C   0  0  0  0  0  0  0  0  0  0  0  0
   -2.7944    1.0255   -0.6446 C   0  0  0  0  0  0  0  0  0  0  0  0
   -3.6325    0.8014    0.6221 C   0  0  0  0  0  0  0  0  0  0  0  0
   -3.3354   -0.5460    1.2774 C   0  0  0  0  0  0  0  0  0  0  0  0
   -3.4473   -1.6495    0.2297 C   0  0  0  0  0  0  0  0  0  0  0  0
   -2.5219   -1.3220   -0.9394 C   0  0  0  0  0  0  0  0  0  0  0  0
   -2.8388   -0.0754   -1.5281 O   0  0  0  0  0  0  0  0  0  0  0  0
    1.5787    0.9789   -0.2215 C   0  0  0  0  0  0  0  0  0  0  0  0
    1.4948    2.3901   -0.6144 C   0  0  0  0  0  0  0  0  0  0  0  0
    1.0384    3.3520    0.1748 C   0  0  0  0  0  0  0  0  0  0  0  0
    2.7831    0.3199   -0.4510 C   0  0  0  0  0  0  0  0  0  0  0  0
    5.7247   -3.1439   -0.1684 H   0  0  0  0  0  0  0  0  0  0  0  0
    4.1291   -3.4611    0.6573 H   0  0  0  0  0  0  0  0  0  0  0  0
    5.0100   -0.9443   -0.8426 H   0  0  0  0  0  0  0  0  0  0  0  0
    2.2002   -2.5948    1.1392 H   0  0  0  0  0  0  0  0  0  0  0  0
    0.0361   -1.5022    1.4787 H   0  0  0  0  0  0  0  0  0  0  0  0
   -0.7900    1.4526   -1.2970 H   0  0  0  0  0  0  0  0  0  0  0  0
   -1.4000    2.5548   -0.0421 H   0  0  0  0  0  0  0  0  0  0  0  0
   -3.2497    1.8362   -1.2296 H   0  0  0  0  0  0  0  0  0  0  0  0
   -4.6869    0.8305    0.3371 H   0  0  0  0  0  0  0  0  0  0  0  0
   -3.4411    1.6164    1.3205 H   0  0  0  0  0  0  0  0  0  0  0  0
   -4.0413   -0.7209    2.0921 H   0  0  0  0  0  0  0  0  0  0  0  0
   -2.3284   -0.5334    1.6930 H   0  0  0  0  0  0  0  0  0  0  0  0
   -4.4751   -1.7076   -0.1357 H   0  0  0  0  0  0  0  0  0  0  0  0
   -3.1731   -2.6174    0.6514 H   0  0  0  0  0  0  0  0  0  0  0  0
   -2.6379   -2.0487   -1.7475 H   0  0  0  0  0  0  0  0  0  0  0  0
   -1.4768   -1.3370   -0.6048 H   0  0  0  0  0  0  0  0  0  0  0  0
    1.9214    2.6353   -1.5798 H   0  0  0  0  0  0  0  0  0  0  0  0
    0.6591    3.1414    1.1613 H   0  0  0  0  0  0  0  0  0  0  0  0
    1.0424    4.3851   -0.1289 H   0  0  0  0  0  0  0  0  0  0  0  0
    3.5588    0.8533   -0.9841 H   0  0  0  0  0  0  0  0  0  0  0  0
  1  2  2  0  0  0  0
  2  3  1  0  0  0  0
  3  4  4  0  0  0  0
  4  5  4  0  0  0  0
  5  6  4  0  0  0  0
  6  7  1  0  0  0  0
  7  8  1  0  0  0  0
  8  9  1  0  0  0  0
  9 10  1  0  0  0  0
 10 11  1  0  0  0  0
 11 12  1  0  0  0  0
 12 13  1  0  0  0  0
  9 14  1  0  0  0  0
 13 14  1  0  0  0  0
  6 15  4  0  0  0  0
 15 16  1  0  0  0  0
 16 17  2  0  0  0  0
  3 18  4  0  0  0  0
 15 18  4  0  0  0  0
  1 19  1  0  0  0  0
  1 20  1  0  0  0  0
  2 21  1  0  0  0  0
  4 22  1  0  0  0  0
  5 23  1  0  0  0  0
  8 24  1  0  0  0  0
  8 25  1  0  0  0  0
  9 26  1  0  0  0  0
 10 27  1  0  0  0  0
 10 28  1  0  0  0  0
 11 29  1  0  0  0  0
 11 30  1  0  0  0  0
 12 31  1  0  0  0  0
 12 32  1  0  0  0  0
 13 33  1  0  0  0  0
 13 34  1  0  0  0  0
 16 35  1  0  0  0  0
 17 36  1  0  0  0  0
 17 37  1  0  0  0  0
 18 38  1  0  0  0  0
M  END
