
  xtb     02032210533D
 xtb: 6.4.1 (23d549d)
 30 31  0     0  0            999 V2000
    1.1485    0.5065   -0.6139 c   0  0  0  0  0  0  0  0  0  0  0  0
    2.4252    0.3879   -0.2662 c   0  0  0  0  0  0  0  0  0  0  0  0
    3.1528    1.2085    0.6946 c   0  0  0  0  0  0  0  0  0  0  0  0
    2.5673    2.0887    1.6111 c   0  0  0  0  0  0  0  0  0  0  0  0
    1.2387    2.2386    1.6621 f   0  0  0  0  0  0  0  0  0  0  0  0
    3.3311    2.8271    2.5043 c   0  0  0  0  0  0  0  0  0  0  0  0
    2.7210    3.6729    3.3416 f   0  0  0  0  0  0  0  0  0  0  0  0
    4.7200    2.7312    2.5293 c   0  0  0  0  0  0  0  0  0  0  0  0
    5.5222    3.5196    3.4820 c   0  0  0  0  0  0  0  0  0  0  0  0
    5.3370    3.3960    4.8565 c   0  0  0  0  0  0  0  0  0  0  0  0
    4.4368    2.5206    5.3170 f   0  0  0  0  0  0  0  0  0  0  0  0
    6.0849    4.1379    5.7603 c   0  0  0  0  0  0  0  0  0  0  0  0
    5.8349    3.9604    7.0628 f   0  0  0  0  0  0  0  0  0  0  0  0
    7.0583    5.0494    5.3372 c   0  0  0  0  0  0  0  0  0  0  0  0
    7.8749    5.8769    6.2171 c   0  0  0  0  0  0  0  0  0  0  0  0
    8.0267    5.7401    7.5295 c   0  0  0  0  0  0  0  0  0  0  0  0
    7.2280    5.1672    3.9509 c   0  0  0  0  0  0  0  0  0  0  0  0
    8.1368    6.0291    3.4764 f   0  0  0  0  0  0  0  0  0  0  0  0
    6.4886    4.4228    3.0455 c   0  0  0  0  0  0  0  0  0  0  0  0
    6.6790    4.5956    1.7337 f   0  0  0  0  0  0  0  0  0  0  0  0
    5.3172    1.8584    1.6229 c   0  0  0  0  0  0  0  0  0  0  0  0
    6.6459    1.7118    1.6324 f   0  0  0  0  0  0  0  0  0  0  0  0
    4.5506    1.1173    0.7375 c   0  0  0  0  0  0  0  0  0  0  0  0
    5.1758    0.2852   -0.1056 f   0  0  0  0  0  0  0  0  0  0  0  0
    0.7219   -0.1609   -1.3426 h   0  0  0  0  0  0  0  0  0  0  0  0
    0.4879    1.2518   -0.2091 h   0  0  0  0  0  0  0  0  0  0  0  0
    3.0332   -0.3734   -0.7360 h   0  0  0  0  0  0  0  0  0  0  0  0
    8.4118    6.6613    5.7012 h   0  0  0  0  0  0  0  0  0  0  0  0
    7.5459    4.9722    8.1068 h   0  0  0  0  0  0  0  0  0  0  0  0
    8.6642    6.4147    8.0745 h   0  0  0  0  0  0  0  0  0  0  0  0
  1  2  2  0  0  0  0
  2  3  1  0  0  0  0
  3  4  4  0  0  0  0
  4  5  1  0  0  0  0
  4  6  4  0  0  0  0
  6  7  1  0  0  0  0
  6  8  4  0  0  0  0
  8  9  1  0  0  0  0
  9 10  4  0  0  0  0
 10 11  1  0  0  0  0
 10 12  4  0  0  0  0
 12 13  1  0  0  0  0
 12 14  4  0  0  0  0
 14 15  1  0  0  0  0
 15 16  2  0  0  0  0
 14 17  4  0  0  0  0
 17 18  1  0  0  0  0
  9 19  4  0  0  0  0
 17 19  4  0  0  0  0
 19 20  1  0  0  0  0
  8 21  4  0  0  0  0
 21 22  1  0  0  0  0
  3 23  4  0  0  0  0
 21 23  4  0  0  0  0
 23 24  1  0  0  0  0
  1 25  1  0  0  0  0
  1 26  1  0  0  0  0
  2 27  1  0  0  0  0
 15 28  1  0  0  0  0
 16 29  1  0  0  0  0
 16 30  1  0  0  0  0
M  END
