27

C          1.10658        0.03917        0.43915
C          2.21120        0.09590       -0.31530
C          3.02760       -1.09050       -0.59470
C          2.66640       -1.80260       -1.75090
C          3.40550       -2.90450       -2.16390
Cl         2.95690       -3.74320       -3.59840
C          4.51540       -3.32070       -1.43790
C          4.89490       -2.64640       -0.26520
C          6.10260       -3.06620        0.47620
C          6.31252       -2.97222        1.79459
F          5.38757       -2.44606        2.62427
F          7.48338       -3.41010        2.30379
C          4.14110       -1.51900        0.16140
O          4.63230       -0.89260        1.28490
C          3.72325       -0.17065        2.10938
C          3.18026       -1.12158        3.16310
H          0.53422        0.93727        0.64668
H          0.74830       -0.89293        0.86514
H          2.56432        1.03918       -0.72234
H          1.81410       -1.47820       -2.34530
H          5.09040       -4.16810       -1.80410
H          6.90721       -3.47971       -0.12569
H          2.87748        0.23279        1.54091
H          4.26364        0.63606        2.61517
H          2.60799       -1.92732        2.69133
H          2.52865       -0.59303        3.86473
H          3.99575       -1.59239        3.72168
27

C          1.63096        0.80722       -1.28996
C          2.21120        0.09590       -0.31530
C          3.02760       -1.09050       -0.59470
C          2.66640       -1.80260       -1.75090
C          3.40550       -2.90450       -2.16390
Cl         2.95690       -3.74320       -3.59840
C          4.51540       -3.32070       -1.43790
C          4.89490       -2.64640       -0.26520
C          6.10260       -3.06620        0.47620
C          6.16966       -3.96598        1.46460
F          5.07224       -4.61117        1.91199
F          7.36649       -4.22811        2.03101
C          4.14110       -1.51900        0.16140
O          4.63230       -0.89260        1.28490
C          6.02683       -0.98589        1.55677
C          6.20300       -1.65705        2.90879
H          1.01474        1.66797       -1.05197
H          1.75309        0.55292       -2.33831
H          2.06727        0.35516        0.72979
H          1.81410       -1.47820       -2.34530
H          5.09040       -4.16810       -1.80410
H          7.02794       -2.57320        0.19095
H          6.50928       -0.00251        1.59495
H          6.49804       -1.61363        0.79354
H          5.76685       -1.03949        3.70104
H          7.26266       -1.81382        3.12967
H          5.68811       -2.62291        2.93538
27

C          2.70647        1.17004        0.31202
C          2.21120        0.09590       -0.31530
C          3.02760       -1.09050       -0.59470
C          2.66640       -1.80260       -1.75090
C          3.40550       -2.90450       -2.16390
Cl         2.95690       -3.74320       -3.59840
C          4.51540       -3.32070       -1.43790
C          4.89490       -2.64640       -0.26520
C          6.10260       -3.06620        0.47620
C          7.20495       -3.63009       -0.03164
F          7.32446       -3.89248       -1.34983
F          8.21926       -3.94936        0.79973
C          4.14110       -1.51900        0.16140
O          4.63230       -0.89260        1.28490
C          6.02683       -0.98589        1.55677
C          6.20300       -1.65705        2.90879
H          2.08469        2.04202        0.48607
H          3.73278        1.20817        0.66396
H          1.18593        0.07930       -0.67406
H          1.81410       -1.47820       -2.34530
H          5.09040       -4.16810       -1.80410
H          6.07567       -2.91038        1.55122
H          6.50928       -0.00251        1.59495
H          6.49804       -1.61363        0.79354
H          5.76685       -1.03949        3.70104
H          7.26266       -1.81382        3.12967
H          5.68811       -2.62291        2.93538
27

C          1.63096        0.80722       -1.28996
C          2.21120        0.09590       -0.31530
C          3.02760       -1.09050       -0.59470
C          2.66640       -1.80260       -1.75090
C          3.40550       -2.90450       -2.16390
Cl         2.95690       -3.74320       -3.59840
C          4.51540       -3.32070       -1.43790
C          4.89490       -2.64640       -0.26520
C          6.10260       -3.06620        0.47620
C          7.20495       -3.63009       -0.03164
F          7.32446       -3.89248       -1.34983
F          8.21926       -3.94936        0.79973
C          4.14110       -1.51900        0.16140
O          4.63230       -0.89260        1.28490
C          6.02683       -0.98589        1.55677
C          6.20300       -1.65705        2.90879
H          1.01474        1.66797       -1.05197
H          1.75309        0.55292       -2.33831
H          2.06727        0.35516        0.72979
H          1.81410       -1.47820       -2.34530
H          5.09040       -4.16810       -1.80410
H          6.07567       -2.91038        1.55122
H          6.50928       -0.00251        1.59495
H          6.49804       -1.61363        0.79354
H          5.76685       -1.03949        3.70104
H          7.26266       -1.81382        3.12967
H          5.68811       -2.62291        2.93538
27

C          1.10658        0.03917        0.43915
C          2.21120        0.09590       -0.31530
C          3.02760       -1.09050       -0.59470
C          2.66640       -1.80260       -1.75090
C          3.40550       -2.90450       -2.16390
Cl         2.95690       -3.74320       -3.59840
C          4.51540       -3.32070       -1.43790
C          4.89490       -2.64640       -0.26520
C          6.10260       -3.06620        0.47620
C          6.62064       -4.29843        0.54175
F          6.05102       -5.34209       -0.09626
F          7.73836       -4.50062        1.27096
C          4.14110       -1.51900        0.16140
O          4.63230       -0.89260        1.28490
C          5.77705       -1.44825        1.92376
C          5.68933       -1.13786        3.40882
H          0.53422        0.93727        0.64668
H          0.74830       -0.89293        0.86514
H          2.56432        1.03918       -0.72234
H          1.81410       -1.47820       -2.34530
H          5.09040       -4.16810       -1.80410
H          6.60773       -2.28549        1.03835
H          6.71290       -1.02740        1.53863
H          5.76513       -2.53540        1.79502
H          5.72788       -0.05618        3.57546
H          6.51442       -1.60610        3.95307
H          4.74164       -1.49281        3.82667
27

C          1.10658        0.03917        0.43915
C          2.21120        0.09590       -0.31530
C          3.02760       -1.09050       -0.59470
C          2.66640       -1.80260       -1.75090
C          3.40550       -2.90450       -2.16390
Cl         2.95690       -3.74320       -3.59840
C          4.51540       -3.32070       -1.43790
C          4.89490       -2.64640       -0.26520
C          6.10260       -3.06620        0.47620
C          7.35088       -2.61490        0.30547
F          7.64660       -1.68067       -0.62218
F          8.33867       -3.11370        1.07839
C          4.14110       -1.51900        0.16140
O          4.63230       -0.89260        1.28490
C          5.77705       -1.44825        1.92376
C          5.68933       -1.13786        3.40882
H          0.53422        0.93727        0.64668
H          0.74830       -0.89293        0.86514
H          2.56432        1.03918       -0.72234
H          1.81410       -1.47820       -2.34530
H          5.09040       -4.16810       -1.80410
H          5.95234       -3.83644        1.22775
H          6.71290       -1.02740        1.53863
H          5.76513       -2.53540        1.79502
H          5.72788       -0.05618        3.57546
H          6.51442       -1.60610        3.95307
H          4.74164       -1.49281        3.82667
27

C          2.43997        0.88551        0.74148
C          2.21120        0.09590       -0.31530
C          3.02760       -1.09050       -0.59470
C          2.66640       -1.80260       -1.75090
C          3.40550       -2.90450       -2.16390
Cl         2.95690       -3.74320       -3.59840
C          4.51540       -3.32070       -1.43790
C          4.89490       -2.64640       -0.26520
C          6.10260       -3.06620        0.47620
C          7.35088       -2.61490        0.30547
F          7.64660       -1.68067       -0.62218
F          8.33867       -3.11370        1.07839
C          4.14110       -1.51900        0.16140
O          4.63230       -0.89260        1.28490
C          6.02683       -0.98589        1.55677
C          6.45395        0.27747        2.28542
H          1.83311        1.76881        0.91108
H          3.22920        0.67497        1.45661
H          1.42649        0.32857       -1.02962
H          1.81410       -1.47820       -2.34530
H          5.09040       -4.16810       -1.80410
H          5.95234       -3.83644        1.22775
H          6.62345       -1.07407        0.64161
H          6.20577       -1.84304        2.21397
H          6.31471        1.15373        1.64350
H          7.50638        0.22055        2.57763
H          5.84486        0.43651        3.18120
27

C          1.10658        0.03917        0.43915
C          2.21120        0.09590       -0.31530
C          3.02760       -1.09050       -0.59470
C          2.66640       -1.80260       -1.75090
C          3.40550       -2.90450       -2.16390
Cl         2.95690       -3.74320       -3.59840
C          4.51540       -3.32070       -1.43790
C          4.89490       -2.64640       -0.26520
C          6.10260       -3.06620        0.47620
C          6.93560       -4.06504        0.16083
F          6.73685       -4.83736       -0.92765
F          7.99769       -4.30786        0.95767
C          4.14110       -1.51900        0.16140
O          4.63230       -0.89260        1.28490
C          4.47027        0.51737        1.39917
C          4.35828        0.86428        2.87448
H          0.53422        0.93727        0.64668
H          0.74830       -0.89293        0.86514
H          2.56432        1.03918       -0.72234
H          1.81410       -1.47820       -2.34530
H          5.09040       -4.16810       -1.80410
H          6.31950       -2.50716        1.38235
H          3.56656        0.87409        0.89192
H          5.35786        1.01275        0.99246
H          3.46226        0.40679        3.30706
H          4.30204        1.94738        3.01581
H          5.21692        0.47748        3.43289
27

C          1.10658        0.03917        0.43915
C          2.21120        0.09590       -0.31530
C          3.02760       -1.09050       -0.59470
C          2.66640       -1.80260       -1.75090
C          3.40550       -2.90450       -2.16390
Cl         2.95690       -3.74320       -3.59840
C          4.51540       -3.32070       -1.43790
C          4.89490       -2.64640       -0.26520
C          6.10260       -3.06620        0.47620
C          7.20495       -3.63009       -0.03164
F          7.32446       -3.89248       -1.34983
F          8.21926       -3.94936        0.79973
C          4.14110       -1.51900        0.16140
O          4.63230       -0.89260        1.28490
C          3.72325       -0.17065        2.10938
C          3.18026       -1.12158        3.16310
H          0.53422        0.93727        0.64668
H          0.74830       -0.89293        0.86514
H          2.56432        1.03918       -0.72234
H          1.81410       -1.47820       -2.34530
H          5.09040       -4.16810       -1.80410
H          6.07567       -2.91038        1.55122
H          2.87748        0.23279        1.54091
H          4.26364        0.63606        2.61517
H          2.60799       -1.92732        2.69133
H          2.52865       -0.59303        3.86473
H          3.99575       -1.59239        3.72168
27

C          2.70647        1.17004        0.31202
C          2.21120        0.09590       -0.31530
C          3.02760       -1.09050       -0.59470
C          2.66640       -1.80260       -1.75090
C          3.40550       -2.90450       -2.16390
Cl         2.95690       -3.74320       -3.59840
C          4.51540       -3.32070       -1.43790
C          4.89490       -2.64640       -0.26520
C          6.10260       -3.06620        0.47620
C          6.16966       -3.96598        1.46460
F          5.07224       -4.61117        1.91199
F          7.36649       -4.22811        2.03101
C          4.14110       -1.51900        0.16140
O          4.63230       -0.89260        1.28490
C          3.72325       -0.17065        2.10938
C          2.35662       -0.82552        1.99574
H          2.08469        2.04202        0.48607
H          3.73278        1.20817        0.66396
H          1.18593        0.07930       -0.67406
H          1.81410       -1.47820       -2.34530
H          5.09040       -4.16810       -1.80410
H          7.02794       -2.57320        0.19095
H          3.62910        0.87795        1.80470
H          4.05502       -0.23803        3.15054
H          1.98148       -0.75000        0.96966
H          1.63896       -0.34618        2.66763
H          2.41301       -1.89161        2.23860
