
 OpenBabel02032211253D

 21 22  0  0  0  0  0  0  0  0999 V2000
    1.2524   -0.3405   -0.3605 C   0  0  0  0  0  0  0  0  0  0  0  0
    2.4123    0.0317    0.1971 C   0  0  0  0  0  0  0  0  0  0  0  0
    3.1761   -0.7717    1.1975 C   0  0  0  0  0  0  0  0  0  0  0  0
    2.7441   -2.0347    1.6582 C   0  0  0  0  0  0  0  0  0  0  0  0
    3.4940   -2.7540    2.6024 C   0  0  0  0  0  0  0  0  0  0  0  0
    4.7017   -2.2349    3.1183 C   0  0  0  0  0  0  0  0  0  0  0  0
    5.5320   -2.9603    4.1250 C   0  0  0  0  0  0  0  0  0  0  0  0
    5.2316   -4.1567    4.6477 C   0  0  0  0  0  0  0  0  0  0  0  0
    5.1185   -0.9774    2.6482 C   0  0  0  0  0  0  0  0  0  0  0  0
    6.2441   -0.3591    3.0478 N   0  0  0  0  0  0  0  0  0  0  0  0
    6.4550    1.2280    2.2400 Se  0  0  0  0  0  0  0  0  0  0  0  0
    4.9154    0.9151    1.3748 N   0  0  0  0  0  0  0  0  0  0  0  0
    4.3811   -0.2700    1.7194 C   0  0  0  0  0  0  0  0  0  0  0  0
    0.7717    0.3157   -1.0792 H   0  0  0  0  0  0  0  0  0  0  0  0
    0.7580   -1.2744   -0.1303 H   0  0  0  0  0  0  0  0  0  0  0  0
    2.8153    0.9928   -0.1090 H   0  0  0  0  0  0  0  0  0  0  0  0
    1.8301   -2.4846    1.3024 H   0  0  0  0  0  0  0  0  0  0  0  0
    3.1109   -3.7131    2.9150 H   0  0  0  0  0  0  0  0  0  0  0  0
    6.4505   -2.4936    4.4693 H   0  0  0  0  0  0  0  0  0  0  0  0
    4.3434   -4.7131    4.3804 H   0  0  0  0  0  0  0  0  0  0  0  0
    5.9006   -4.6032    5.3765 H   0  0  0  0  0  0  0  0  0  0  0  0
  1  2  2  0  0  0  0
  1 14  1  0  0  0  0
  1 15  1  0  0  0  0
  2  3  1  0  0  0  0
  2 16  1  0  0  0  0
  3  4  2  0  0  0  0
  3 13  1  0  0  0  0
  4  5  1  0  0  0  0
  4 17  1  0  0  0  0
  5  6  2  0  0  0  0
  5 18  1  0  0  0  0
  6  7  1  0  0  0  0
  6  9  1  0  0  0  0
  7  8  2  0  0  0  0
  7 19  1  0  0  0  0
  8 20  1  0  0  0  0
  8 21  1  0  0  0  0
  9 10  2  0  0  0  0
  9 13  1  0  0  0  0
 10 11  1  0  0  0  0
 11 12  1  0  0  0  0
 12 13  2  0  0  0  0
M  END
