
  xtb     02032211363D
 xtb: 6.4.1 (23d549d)
 28 28  0     0  0            999 V2000
    2.2433   -3.5037    0.0886 C   0  0  0  0  0  0  0  0  0  0  0  0
    1.0515   -2.9253   -0.0098 C   0  0  0  0  0  0  0  0  0  0  0  0
    0.7325   -1.5037   -0.0335 C   0  0  0  0  0  0  0  0  0  0  0  0
   -0.6035   -1.1252   -0.0131 C   0  0  0  0  0  0  0  0  0  0  0  0
   -1.0159    0.2045   -0.0257 C   0  0  0  0  0  0  0  0  0  0  0  0
   -2.4464    0.5252    0.0235 C   0  0  0  0  0  0  0  0  0  0  0  0
   -2.9203    1.6476    0.0425 O   0  0  0  0  0  0  0  0  0  0  0  0
   -3.2297   -0.5652    0.0544 O   0  0  0  0  0  0  0  0  0  0  0  0
   -4.6256   -0.3213    0.1066 C   0  0  0  0  0  0  0  0  0  0  0  0
   -0.0486    1.2373   -0.0659 C   0  0  0  0  0  0  0  0  0  0  0  0
   -0.4182    2.5328   -0.0701 N   0  0  0  0  0  0  0  0  0  0  0  0
    1.3221    0.8807   -0.1064 C   0  0  0  0  0  0  0  0  0  0  0  0
    2.3412    1.9320   -0.2157 C   0  0  0  0  0  0  0  0  0  0  0  0
    3.4870    1.9594    0.4485 C   0  0  0  0  0  0  0  0  0  0  0  0
    1.6692   -0.4596   -0.0848 C   0  0  0  0  0  0  0  0  0  0  0  0
    2.9814   -0.7599   -0.1629 F   0  0  0  0  0  0  0  0  0  0  0  0
    2.3291   -4.5774    0.0999 H   0  0  0  0  0  0  0  0  0  0  0  0
    3.1656   -2.9578    0.1612 H   0  0  0  0  0  0  0  0  0  0  0  0
    0.1727   -3.5567   -0.0698 H   0  0  0  0  0  0  0  0  0  0  0  0
   -1.3621   -1.8912    0.0203 H   0  0  0  0  0  0  0  0  0  0  0  0
   -5.1033   -1.2976    0.1140 H   0  0  0  0  0  0  0  0  0  0  0  0
   -4.9445    0.2558   -0.7642 H   0  0  0  0  0  0  0  0  0  0  0  0
   -4.8813    0.2380    1.0093 H   0  0  0  0  0  0  0  0  0  0  0  0
   -1.4063    2.7340    0.0059 H   0  0  0  0  0  0  0  0  0  0  0  0
    0.2665    3.2572    0.0391 H   0  0  0  0  0  0  0  0  0  0  0  0
    2.1059    2.7285   -0.9129 H   0  0  0  0  0  0  0  0  0  0  0  0
    3.7568    1.1963    1.1579 H   0  0  0  0  0  0  0  0  0  0  0  0
    4.2004    2.7528    0.3048 H   0  0  0  0  0  0  0  0  0  0  0  0
  1  2  2  0  0  0  0
  2  3  1  0  0  0  0
  3  4  4  0  0  0  0
  4  5  4  0  0  0  0
  5  6  1  0  0  0  0
  6  7  2  0  0  0  0
  6  8  1  0  0  0  0
  8  9  1  0  0  0  0
  5 10  4  0  0  0  0
 10 11  4  0  0  0  0
 10 12  4  0  0  0  0
 12 13  1  0  0  0  0
 13 14  2  0  0  0  0
  3 15  4  0  0  0  0
 12 15  4  0  0  0  0
 15 16  1  0  0  0  0
  1 17  1  0  0  0  0
  1 18  1  0  0  0  0
  2 19  1  0  0  0  0
  4 20  1  0  0  0  0
  9 21  1  0  0  0  0
  9 22  1  0  0  0  0
  9 23  1  0  0  0  0
 11 24  1  0  0  0  0
 11 25  1  0  0  0  0
 13 26  1  0  0  0  0
 14 27  1  0  0  0  0
 14 28  1  0  0  0  0
M  END
