
 OpenBabel02032211023D

 26 26  0  0  0  0  0  0  0  0999 V2000
    1.9646   -0.5195    1.2871 C   0  0  0  0  0  0  0  0  0  0  0  0
    2.0133   -0.1640   -0.0060 C   0  0  0  0  0  0  0  0  0  0  0  0
    2.8176   -0.8624   -1.0693 C   0  0  0  0  0  0  0  0  0  0  0  0
    3.7199   -1.8896   -0.7022 C   0  0  0  0  0  0  0  0  0  0  0  0
    4.4750   -2.5677   -1.6501 C   0  0  0  0  0  0  0  0  0  0  0  0
    4.3624   -2.2471   -2.9955 C   0  0  0  0  0  0  0  0  0  0  0  0
    5.3192   -3.1615   -4.2071 S   0  0  0  0  0  0  0  0  0  0  0  0
    4.8340   -4.7818   -4.8625 C   0  0  0  0  0  0  0  0  0  0  0  0
    5.5980   -2.2304   -5.3975 O   0  0  0  0  0  0  0  0  0  0  0  0
    6.7518   -3.2839   -3.6657 O   0  0  0  0  0  0  0  0  0  0  0  0
    3.4874   -1.2364   -3.3972 C   0  0  0  0  0  0  0  0  0  0  0  0
    2.7027   -0.5202   -2.4611 C   0  0  0  0  0  0  0  0  0  0  0  0
    1.7620    0.5537   -2.9416 C   0  0  0  0  0  0  0  0  0  0  0  0
    1.5945    0.9303   -4.2194 C   0  0  0  0  0  0  0  0  0  0  0  0
    1.3448    0.0501    1.9727 H   0  0  0  0  0  0  0  0  0  0  0  0
    2.4994   -1.3615    1.7027 H   0  0  0  0  0  0  0  0  0  0  0  0
    1.4033    0.6902   -0.2493 H   0  0  0  0  0  0  0  0  0  0  0  0
    3.8606   -2.1907    0.3229 H   0  0  0  0  0  0  0  0  0  0  0  0
    5.1498   -3.3524   -1.3334 H   0  0  0  0  0  0  0  0  0  0  0  0
    3.8281   -4.7060   -5.3245 H   0  0  0  0  0  0  0  0  0  0  0  0
    4.8197   -5.5237   -4.0375 H   0  0  0  0  0  0  0  0  0  0  0  0
    5.5637   -5.1063   -5.6322 H   0  0  0  0  0  0  0  0  0  0  0  0
    3.4349   -1.0341   -4.4534 H   0  0  0  0  0  0  0  0  0  0  0  0
    1.1435    1.0938   -2.2442 H   0  0  0  0  0  0  0  0  0  0  0  0
    2.1276    0.4986   -5.0536 H   0  0  0  0  0  0  0  0  0  0  0  0
    0.8831    1.7167   -4.4523 H   0  0  0  0  0  0  0  0  0  0  0  0
  1  2  2  0  0  0  0
  1 15  1  0  0  0  0
  1 16  1  0  0  0  0
  2  3  1  0  0  0  0
  2 17  1  0  0  0  0
  3  4  1  0  0  0  0
  3 12  2  0  0  0  0
  4  5  2  0  0  0  0
  4 18  1  0  0  0  0
  5  6  1  0  0  0  0
  5 19  1  0  0  0  0
  6  7  1  0  0  0  0
  6 11  2  0  0  0  0
  7  8  1  0  0  0  0
  7  9  2  0  0  0  0
  7 10  2  0  0  0  0
  8 20  1  0  0  0  0
  8 21  1  0  0  0  0
  8 22  1  0  0  0  0
 11 12  1  0  0  0  0
 11 23  1  0  0  0  0
 12 13  1  0  0  0  0
 13 14  2  0  0  0  0
 13 24  1  0  0  0  0
 14 25  1  0  0  0  0
 14 26  1  0  0  0  0
M  END
