
  xtb     02032211353D
 xtb: 6.4.1 (23d549d)
 33 34  0     0  0            999 V2000
   -4.1772    2.0047    0.1931 C   0  0  0  0  0  0  0  0  0  0  0  0
   -2.9665    2.1543   -0.3363 C   0  0  0  0  0  0  0  0  0  0  0  0
   -1.9309    1.1581   -0.3190 C   0  0  0  0  0  0  0  0  0  0  0  0
   -0.6724    1.2667   -0.8422 C   0  0  0  0  0  0  0  0  0  0  0  0
    0.1495    0.1242   -0.6842 C   0  0  0  0  0  0  0  0  0  0  0  0
    1.5659    0.2118   -1.2091 C   0  0  0  0  0  0  0  0  0  0  0  0
    2.2933    1.4174   -0.5837 C   0  0  0  0  0  0  0  0  0  0  0  0
    2.6301    1.1613    0.8807 C   0  0  0  0  0  0  0  0  0  0  0  0
    3.5525   -0.0459    1.0011 C   0  0  0  0  0  0  0  0  0  0  0  0
    2.8728   -1.2710    0.4006 C   0  0  0  0  0  0  0  0  0  0  0  0
    2.4749   -1.0102   -1.0507 C   0  0  0  0  0  0  0  0  0  0  0  0
   -0.5252   -0.8950   -0.0471 C   0  0  0  0  0  0  0  0  0  0  0  0
   -0.1724   -2.2636    0.2540 C   0  0  0  0  0  0  0  0  0  0  0  0
   -0.7585   -2.9945    1.1980 C   0  0  0  0  0  0  0  0  0  0  0  0
   -2.1453   -0.4036    0.3981 S   0  0  0  0  0  0  0  0  0  0  0  0
   -4.9155    2.7855    0.1494 H   0  0  0  0  0  0  0  0  0  0  0  0
   -4.4627    1.0907    0.6874 H   0  0  0  0  0  0  0  0  0  0  0  0
   -2.6936    3.0792   -0.8295 H   0  0  0  0  0  0  0  0  0  0  0  0
   -0.3492    2.1562   -1.3551 H   0  0  0  0  0  0  0  0  0  0  0  0
    1.4675    0.4087   -2.2869 H   0  0  0  0  0  0  0  0  0  0  0  0
    1.6893    2.3207   -0.6682 H   0  0  0  0  0  0  0  0  0  0  0  0
    3.2199    1.5869   -1.1382 H   0  0  0  0  0  0  0  0  0  0  0  0
    1.7093    0.9749    1.4384 H   0  0  0  0  0  0  0  0  0  0  0  0
    3.1096    2.0449    1.3077 H   0  0  0  0  0  0  0  0  0  0  0  0
    3.7957   -0.2324    2.0491 H   0  0  0  0  0  0  0  0  0  0  0  0
    4.4866    0.1567    0.4708 H   0  0  0  0  0  0  0  0  0  0  0  0
    1.9907   -1.5072    0.9966 H   0  0  0  0  0  0  0  0  0  0  0  0
    3.5456   -2.1309    0.4417 H   0  0  0  0  0  0  0  0  0  0  0  0
    2.0102   -1.8916   -1.4939 H   0  0  0  0  0  0  0  0  0  0  0  0
    3.3850   -0.8130   -1.6253 H   0  0  0  0  0  0  0  0  0  0  0  0
    0.5895   -2.7152   -0.3624 H   0  0  0  0  0  0  0  0  0  0  0  0
   -1.5252   -2.5882    1.8368 H   0  0  0  0  0  0  0  0  0  0  0  0
   -0.4855   -4.0218    1.3638 H   0  0  0  0  0  0  0  0  0  0  0  0
  1  2  2  0  0  0  0
  2  3  1  0  0  0  0
  3  4  2  0  0  0  0
  4  5  4  0  0  0  0
  5  6  1  0  0  0  0
  6  7  1  0  0  0  0
  7  8  1  0  0  0  0
  8  9  1  0  0  0  0
  9 10  1  0  0  0  0
  6 11  1  0  0  0  0
 10 11  1  0  0  0  0
  5 12  4  0  0  0  0
 12 13  1  0  0  0  0
 13 14  2  0  0  0  0
  3 15  1  0  0  0  0
 12 15  1  0  0  0  0
  1 16  1  0  0  0  0
  1 17  1  0  0  0  0
  2 18  1  0  0  0  0
  4 19  1  0  0  0  0
  6 20  1  0  0  0  0
  7 21  1  0  0  0  0
  7 22  1  0  0  0  0
  8 23  1  0  0  0  0
  8 24  1  0  0  0  0
  9 25  1  0  0  0  0
  9 26  1  0  0  0  0
 10 27  1  0  0  0  0
 10 28  1  0  0  0  0
 11 29  1  0  0  0  0
 11 30  1  0  0  0  0
 13 31  1  0  0  0  0
 14 32  1  0  0  0  0
 14 33  1  0  0  0  0
M  END
