
 OpenBabel02012214153D

 24 24  0  0  0  0  0  0  0  0999 V2000
    1.4268   -0.8216   -0.0146 C   0  0  0  0  0  0  0  0  0  0  0  0
    2.3070    0.3043   -0.5534 C   0  0  0  0  0  0  0  0  0  0  0  0
    3.0849   -0.1326   -1.6099 O   0  0  0  0  0  0  0  0  0  0  0  0
    4.1164   -1.0129   -1.5115 C   0  0  0  0  0  0  0  0  0  0  0  0
    4.5032   -1.4004   -0.4186 O   0  0  0  0  0  0  0  0  0  0  0  0
    4.7737   -1.4898   -2.7436 C   0  0  0  0  0  0  0  0  0  0  0  0
    4.4161   -1.1416   -4.0286 C   0  0  0  0  0  0  0  0  0  0  0  0
    5.2878   -1.8222   -4.8556 C   0  0  0  0  0  0  0  0  0  0  0  0
    5.2968   -1.7744   -6.3467 C   0  0  0  0  0  0  0  0  0  0  0  0
    6.1268   -2.5380   -4.1401 O   0  0  0  0  0  0  0  0  0  0  0  0
    5.8470   -2.3622   -2.8676 C   0  0  0  0  0  0  0  0  0  0  0  0
    6.6002   -3.0244   -1.7597 C   0  0  0  0  0  0  0  0  0  0  0  0
    0.7881   -0.4345    0.8067 H   0  0  0  0  0  0  0  0  0  0  0  0
    2.0438   -1.6544    0.3807 H   0  0  0  0  0  0  0  0  0  0  0  0
    0.7730   -1.2087   -0.8252 H   0  0  0  0  0  0  0  0  0  0  0  0
    2.9506    0.7203    0.2525 H   0  0  0  0  0  0  0  0  0  0  0  0
    1.6427    1.1149   -0.9201 H   0  0  0  0  0  0  0  0  0  0  0  0
    3.6165   -0.4768   -4.3288 H   0  0  0  0  0  0  0  0  0  0  0  0
    4.4946   -1.1040   -6.7218 H   0  0  0  0  0  0  0  0  0  0  0  0
    5.1317   -2.7953   -6.7493 H   0  0  0  0  0  0  0  0  0  0  0  0
    6.2788   -1.3958   -6.6986 H   0  0  0  0  0  0  0  0  0  0  0  0
    7.4048   -3.6644   -2.1787 H   0  0  0  0  0  0  0  0  0  0  0  0
    5.9121   -3.6573   -1.1627 H   0  0  0  0  0  0  0  0  0  0  0  0
    7.0589   -2.2539   -1.1055 H   0  0  0  0  0  0  0  0  0  0  0  0
  1  2  1  0  0  0  0
  1 13  1  0  0  0  0
  1 14  1  0  0  0  0
  1 15  1  0  0  0  0
  2  3  1  0  0  0  0
  2 16  1  0  0  0  0
  2 17  1  0  0  0  0
  3  4  1  0  0  0  0
  4  5  2  0  0  0  0
  4  6  1  0  0  0  0
  6  7  1  0  0  0  0
  6 11  2  0  0  0  0
  7  8  2  0  0  0  0
  7 18  1  0  0  0  0
  8  9  1  0  0  0  0
  8 10  1  0  0  0  0
  9 19  1  0  0  0  0
  9 20  1  0  0  0  0
  9 21  1  0  0  0  0
 10 11  1  0  0  0  0
 11 12  1  0  0  0  0
 12 22  1  0  0  0  0
 12 23  1  0  0  0  0
 12 24  1  0  0  0  0
M  END
