17

C         -2.86710        0.04130       -0.02630
C         -1.37160        0.03450       -0.02350
N         -0.69820       -1.14840       -0.01700
C          0.66060       -1.20210       -0.01570
C          1.41260       -0.01800       -0.02180
C          2.91200       -0.05150       -0.02250
C          0.73760        1.20940       -0.02780
C         -0.65810        1.23960       -0.02860
H         -3.26230       -0.99680       -0.02200
H         -3.23770        0.56020       -0.93520
H         -3.24180        0.56960        0.87550
H          1.15130       -2.16680       -0.01090
H          3.29540       -1.09400       -0.01730
H          3.29760        0.46990        0.87880
H          3.29570        0.45980       -0.93040
H          1.29200        2.13980       -0.03220
H         -1.17780        2.18980       -0.03370
