
 OpenBabel02012213463D

 17 17  0  0  0  0  0  0  0  0999 V2000
   -2.8428    0.0252   -0.0349 C   0  0  0  0  0  0  0  0  0  0  0  0
   -1.3439    0.0350   -0.0135 C   0  0  0  0  0  0  0  0  0  0  0  0
   -0.7153   -1.1632   -0.0082 N   0  0  0  0  0  0  0  0  0  0  0  0
    0.6373   -1.1550   -0.0070 C   0  0  0  0  0  0  0  0  0  0  0  0
    1.4114   -0.0015   -0.0117 C   0  0  0  0  0  0  0  0  0  0  0  0
    2.9052   -0.0581   -0.0296 C   0  0  0  0  0  0  0  0  0  0  0  0
    0.7396    1.2201   -0.0104 C   0  0  0  0  0  0  0  0  0  0  0  0
   -0.6532    1.2427   -0.0104 C   0  0  0  0  0  0  0  0  0  0  0  0
   -3.2263   -1.0001   -0.0278 H   0  0  0  0  0  0  0  0  0  0  0  0
   -3.2095    0.5190   -0.9403 H   0  0  0  0  0  0  0  0  0  0  0  0
   -3.2387    0.5438    0.8434 H   0  0  0  0  0  0  0  0  0  0  0  0
    1.0927   -2.1418   -0.0050 H   0  0  0  0  0  0  0  0  0  0  0  0
    3.2686   -1.0910   -0.0129 H   0  0  0  0  0  0  0  0  0  0  0  0
    3.3150    0.4559    0.8454 H   0  0  0  0  0  0  0  0  0  0  0  0
    3.2887    0.4173   -0.9380 H   0  0  0  0  0  0  0  0  0  0  0  0
    1.2930    2.1557   -0.0124 H   0  0  0  0  0  0  0  0  0  0  0  0
   -1.1861    2.1877   -0.0133 H   0  0  0  0  0  0  0  0  0  0  0  0
  1  2  1  0  0  0  0
  1  9  1  0  0  0  0
  1 10  1  0  0  0  0
  1 11  1  0  0  0  0
  2  3  1  0  0  0  0
  2  8  2  0  0  0  0
  3  4  2  0  0  0  0
  4  5  1  0  0  0  0
  4 12  1  0  0  0  0
  5  6  1  0  0  0  0
  5  7  2  0  0  0  0
  6 13  1  0  0  0  0
  6 14  1  0  0  0  0
  6 15  1  0  0  0  0
  7  8  1  0  0  0  0
  7 16  1  0  0  0  0
  8 17  1  0  0  0  0
M  END
