
 OpenBabel08112216333D

 23 23  0  0  0  0  0  0  0  0999 V2000
    1.2312    0.1421   -0.5865 C   0  0  0  0  0  0  0  0  0  0  0  0
    2.4280   -0.1013   -0.0357 C   0  0  0  0  0  0  0  0  0  0  0  0
    3.1128   -1.4023   -0.0499 C   0  0  0  0  0  0  0  0  0  0  0  0
    2.4262   -2.6151   -0.0410 C   0  0  0  0  0  0  0  0  0  0  0  0
    3.1214   -3.8302   -0.0355 C   0  0  0  0  0  0  0  0  0  0  0  0
    4.5264   -3.8776   -0.0135 C   0  0  0  0  0  0  0  0  0  0  0  0
    5.2171   -5.1795   -0.0691 C   0  0  0  0  0  0  0  0  0  0  0  0
    4.8002   -6.3424    0.4481 C   0  0  0  0  0  0  0  0  0  0  0  0
    3.6365   -6.4471    1.1220 F   0  0  0  0  0  0  0  0  0  0  0  0
    5.5707   -7.4383    0.2905 F   0  0  0  0  0  0  0  0  0  0  0  0
    5.2311   -2.6543   -0.0122 C   0  0  0  0  0  0  0  0  0  0  0  0
    6.7339   -2.5380    0.0090 C   0  0  0  0  0  0  0  0  0  0  0  0
    4.5113   -1.4374   -0.0214 C   0  0  0  0  0  0  0  0  0  0  0  0
    0.7979    1.1363   -0.5380 H   0  0  0  0  0  0  0  0  0  0  0  0
    0.6593   -0.6182   -1.1078 H   0  0  0  0  0  0  0  0  0  0  0  0
    2.9593    0.7157    0.4482 H   0  0  0  0  0  0  0  0  0  0  0  0
    1.3396   -2.6398   -0.0353 H   0  0  0  0  0  0  0  0  0  0  0  0
    2.5327   -4.7449   -0.0547 H   0  0  0  0  0  0  0  0  0  0  0  0
    6.1662   -5.2011   -0.5944 H   0  0  0  0  0  0  0  0  0  0  0  0
    7.2525   -3.4978    0.0326 H   0  0  0  0  0  0  0  0  0  0  0  0
    7.0494   -1.9823    0.8988 H   0  0  0  0  0  0  0  0  0  0  0  0
    7.0753   -2.0011   -0.8830 H   0  0  0  0  0  0  0  0  0  0  0  0
    5.0667   -0.4996   -0.0178 H   0  0  0  0  0  0  0  0  0  0  0  0
  1  2  2  0  0  0  0
  1 14  1  0  0  0  0
  1 15  1  0  0  0  0
  2  3  1  0  0  0  0
  2 16  1  0  0  0  0
  3  4  1  0  0  0  0
  3 13  2  0  0  0  0
  4  5  2  0  0  0  0
  4 17  1  0  0  0  0
  5  6  1  0  0  0  0
  5 18  1  0  0  0  0
  6  7  1  0  0  0  0
  6 11  2  0  0  0  0
  7  8  2  0  0  0  0
  7 19  1  0  0  0  0
  8  9  1  0  0  0  0
  8 10  1  0  0  0  0
 11 12  1  0  0  0  0
 11 13  1  0  0  0  0
 12 20  1  0  0  0  0
 12 21  1  0  0  0  0
 12 22  1  0  0  0  0
 13 23  1  0  0  0  0
M  END
