
 OpenBabel08112216333D

 23 23  0  0  0  0  0  0  0  0999 V2000
    1.2316    0.1419   -0.5861 C   0  0  0  0  0  0  0  0  0  0  0  0
    2.4274   -0.1027   -0.0337 C   0  0  0  0  0  0  0  0  0  0  0  0
    3.1116   -1.4044   -0.0497 C   0  0  0  0  0  0  0  0  0  0  0  0
    2.4248   -2.6172   -0.0426 C   0  0  0  0  0  0  0  0  0  0  0  0
    3.1209   -3.8320   -0.0398 C   0  0  0  0  0  0  0  0  0  0  0  0
    4.5255   -3.8779   -0.0175 C   0  0  0  0  0  0  0  0  0  0  0  0
    5.2168   -5.1796   -0.0750 C   0  0  0  0  0  0  0  0  0  0  0  0
    4.8022   -6.3389    0.4526 C   0  0  0  0  0  0  0  0  0  0  0  0
    3.6452   -6.4375    1.1363 F   0  0  0  0  0  0  0  0  0  0  0  0
    5.5707   -7.4383    0.2912 F   0  0  0  0  0  0  0  0  0  0  0  0
    5.2308   -2.6556   -0.0111 C   0  0  0  0  0  0  0  0  0  0  0  0
    6.7334   -2.5394    0.0114 C   0  0  0  0  0  0  0  0  0  0  0  0
    4.5106   -1.4389   -0.0212 C   0  0  0  0  0  0  0  0  0  0  0  0
    0.8005    1.1362   -0.5377 H   0  0  0  0  0  0  0  0  0  0  0  0
    0.6622   -0.6182   -1.1088 H   0  0  0  0  0  0  0  0  0  0  0  0
    2.9605    0.7124    0.4504 H   0  0  0  0  0  0  0  0  0  0  0  0
    1.3378   -2.6410   -0.0361 H   0  0  0  0  0  0  0  0  0  0  0  0
    2.5324   -4.7468   -0.0608 H   0  0  0  0  0  0  0  0  0  0  0  0
    6.1603   -5.2011   -0.6102 H   0  0  0  0  0  0  0  0  0  0  0  0
    7.2508   -3.4998    0.0424 H   0  0  0  0  0  0  0  0  0  0  0  0
    7.0469   -1.9790    0.8991 H   0  0  0  0  0  0  0  0  0  0  0  0
    7.0775   -2.0076   -0.8825 H   0  0  0  0  0  0  0  0  0  0  0  0
    5.0654   -0.5009   -0.0162 H   0  0  0  0  0  0  0  0  0  0  0  0
  1  2  2  0  0  0  0
  1 14  1  0  0  0  0
  1 15  1  0  0  0  0
  2  3  1  0  0  0  0
  2 16  1  0  0  0  0
  3  4  1  0  0  0  0
  3 13  2  0  0  0  0
  4  5  2  0  0  0  0
  4 17  1  0  0  0  0
  5  6  1  0  0  0  0
  5 18  1  0  0  0  0
  6  7  1  0  0  0  0
  6 11  2  0  0  0  0
  7  8  2  0  0  0  0
  7 19  1  0  0  0  0
  8  9  1  0  0  0  0
  8 10  1  0  0  0  0
 11 12  1  0  0  0  0
 11 13  1  0  0  0  0
 12 20  1  0  0  0  0
 12 21  1  0  0  0  0
 12 22  1  0  0  0  0
 13 23  1  0  0  0  0
M  END
