
 OpenBabel02012214003D

 15 15  0  0  0  0  0  0  0  0999 V2000
    0.9579    0.0827    0.0907 C   0  0  0  0  0  0  0  0  0  0  0  0
    2.4529    0.0610    0.0938 C   0  0  0  0  0  0  0  0  0  0  0  0
    3.2903    1.1542    0.1004 C   0  0  0  0  0  0  0  0  0  0  0  0
    4.5737    0.6445    0.1010 C   0  0  0  0  0  0  0  0  0  0  0  0
    4.5308   -0.6707    0.0950 O   0  0  0  0  0  0  0  0  0  0  0  0
    3.2726   -1.0512    0.0906 C   0  0  0  0  0  0  0  0  0  0  0  0
    2.8315   -2.4779    0.0835 C   0  0  0  0  0  0  0  0  0  0  0  0
    0.5848    1.1287    0.0945 H   0  0  0  0  0  0  0  0  0  0  0  0
    0.5755   -0.4384    0.9930 H   0  0  0  0  0  0  0  0  0  0  0  0
    0.5792   -0.4306   -0.8175 H   0  0  0  0  0  0  0  0  0  0  0  0
    3.0052    2.1980    0.1044 H   0  0  0  0  0  0  0  0  0  0  0  0
    5.4860    1.2256    0.1055 H   0  0  0  0  0  0  0  0  0  0  0  0
    3.7164   -3.1484    0.0828 H   0  0  0  0  0  0  0  0  0  0  0  0
    2.2254   -2.6781   -0.8246 H   0  0  0  0  0  0  0  0  0  0  0  0
    2.2212   -2.6857    0.9869 H   0  0  0  0  0  0  0  0  0  0  0  0
  1  2  1  0  0  0  0
  1  8  1  0  0  0  0
  1  9  1  0  0  0  0
  1 10  1  0  0  0  0
  2  3  1  0  0  0  0
  2  6  2  0  0  0  0
  3  4  2  0  0  0  0
  3 11  1  0  0  0  0
  4  5  1  0  0  0  0
  4 12  1  0  0  0  0
  5  6  1  0  0  0  0
  6  7  1  0  0  0  0
  7 13  1  0  0  0  0
  7 14  1  0  0  0  0
  7 15  1  0  0  0  0
M  END
