
  xtb     02032211353D
 xtb: 6.4.1 (23d549d)
 20 20  0     0  0            999 V2000
    2.5809   -1.4140    0.5677 C   0  0  0  0  0  0  0  0  0  0  0  0
    2.1468   -0.3477   -0.0957 C   0  0  0  0  0  0  0  0  0  0  0  0
    0.7963    0.1644   -0.1058 C   0  0  0  0  0  0  0  0  0  0  0  0
    0.6142    1.8735   -0.3993 S   0  0  0  0  0  0  0  0  0  0  0  0
   -1.0799    1.7802   -0.1403 C   0  0  0  0  0  0  0  0  0  0  0  0
   -1.4963    0.5207    0.1495 C   0  0  0  0  0  0  0  0  0  0  0  0
   -2.9205    0.1502    0.4022 C   0  0  0  0  0  0  0  0  0  0  0  0
   -0.4214   -0.4216    0.1581 C   0  0  0  0  0  0  0  0  0  0  0  0
   -0.6850   -1.8440    0.3553 C   0  0  0  0  0  0  0  0  0  0  0  0
   -0.1855   -2.8187   -0.3895 C   0  0  0  0  0  0  0  0  0  0  0  0
    3.6176   -1.7010    0.5401 H   0  0  0  0  0  0  0  0  0  0  0  0
    1.9225   -2.0296    1.1551 H   0  0  0  0  0  0  0  0  0  0  0  0
    2.8541    0.2628   -0.6446 H   0  0  0  0  0  0  0  0  0  0  0  0
   -1.6740    2.6695   -0.2185 H   0  0  0  0  0  0  0  0  0  0  0  0
   -3.5650    1.0166    0.2767 H   0  0  0  0  0  0  0  0  0  0  0  0
   -3.0415   -0.2283    1.4172 H   0  0  0  0  0  0  0  0  0  0  0  0
   -3.2378   -0.6293   -0.2893 H   0  0  0  0  0  0  0  0  0  0  0  0
   -1.4023   -2.0719    1.1348 H   0  0  0  0  0  0  0  0  0  0  0  0
    0.5065   -2.6203   -1.1906 H   0  0  0  0  0  0  0  0  0  0  0  0
   -0.4462   -3.8497   -0.2210 H   0  0  0  0  0  0  0  0  0  0  0  0
  1  2  2  0  0  0  0
  2  3  1  0  0  0  0
  3  4  1  0  0  0  0
  4  5  1  0  0  0  0
  5  6  2  0  0  0  0
  6  7  1  0  0  0  0
  3  8  4  0  0  0  0
  6  8  4  0  0  0  0
  8  9  1  0  0  0  0
  9 10  2  0  0  0  0
  1 11  1  0  0  0  0
  1 12  1  0  0  0  0
  2 13  1  0  0  0  0
  5 14  1  0  0  0  0
  7 15  1  0  0  0  0
  7 16  1  0  0  0  0
  7 17  1  0  0  0  0
  9 18  1  0  0  0  0
 10 19  1  0  0  0  0
 10 20  1  0  0  0  0
M  END
