
  xtb     02032211353D
 xtb: 6.4.1 (23d549d)
 14 13  0     0  0            999 V2000
   -3.4882   -0.9406   -0.0043 C   0  0  0  0  0  0  0  0  0  0  0  0
   -3.1325    0.3429    0.0027 C   0  0  0  0  0  0  0  0  0  0  0  0
   -1.7828    0.8590    0.0039 C   0  0  0  0  0  0  0  0  0  0  0  0
   -0.6543    0.1298    0.0004 C   0  0  0  0  0  0  0  0  0  0  0  0
    0.6543    0.7229    0.0022 C   0  0  0  0  0  0  0  0  0  0  0  0
    1.7805    0.0182   -0.0002 C   0  0  0  0  0  0  0  0  0  0  0  0
    1.8668   -1.3082   -0.0045 F   0  0  0  0  0  0  0  0  0  0  0  0
    3.0017    0.5441    0.0013 F   0  0  0  0  0  0  0  0  0  0  0  0
   -4.5236   -1.2339   -0.0045 H   0  0  0  0  0  0  0  0  0  0  0  0
   -2.7688   -1.7409   -0.0101 H   0  0  0  0  0  0  0  0  0  0  0  0
   -3.9086    1.0979    0.0081 H   0  0  0  0  0  0  0  0  0  0  0  0
   -1.6958    1.9383    0.0084 H   0  0  0  0  0  0  0  0  0  0  0  0
   -0.6905   -0.9494   -0.0037 H   0  0  0  0  0  0  0  0  0  0  0  0
    0.7426    1.7984    0.0056 H   0  0  0  0  0  0  0  0  0  0  0  0
  1  2  2  0  0  0  0
  2  3  1  0  0  0  0
  3  4  2  0  0  0  0
  4  5  1  0  0  0  0
  5  6  2  0  0  0  0
  6  7  1  0  0  0  0
  6  8  1  0  0  0  0
  1  9  1  0  0  0  0
  1 10  1  0  0  0  0
  2 11  1  0  0  0  0
  3 12  1  0  0  0  0
  4 13  1  0  0  0  0
  5 14  1  0  0  0  0
M  END
