
  xtb     02032211363D
 xtb: 6.4.1 (23d549d)
 24 25  0     0  0            999 V2000
    5.1367    1.1097   -0.0064 C   0  0  0  0  0  0  0  0  0  0  0  0
    4.6099   -0.1123    0.0014 C   0  0  0  0  0  0  0  0  0  0  0  0
    3.2049   -0.4055    0.0022 C   0  0  0  0  0  0  0  0  0  0  0  0
    2.6173   -1.6472    0.0088 C   0  0  0  0  0  0  0  0  0  0  0  0
    1.2190   -1.6083    0.0081 C   0  0  0  0  0  0  0  0  0  0  0  0
    0.7124   -0.3303    0.0010 C   0  0  0  0  0  0  0  0  0  0  0  0
   -0.6512    0.0778   -0.0012 C   0  0  0  0  0  0  0  0  0  0  0  0
   -1.1584    1.3565   -0.0092 C   0  0  0  0  0  0  0  0  0  0  0  0
   -2.5558    1.4010   -0.0086 C   0  0  0  0  0  0  0  0  0  0  0  0
   -3.1461    0.1600   -0.0004 C   0  0  0  0  0  0  0  0  0  0  0  0
   -4.5359   -0.2057    0.0028 C   0  0  0  0  0  0  0  0  0  0  0  0
   -5.5562    0.6498   -0.0018 C   0  0  0  0  0  0  0  0  0  0  0  0
   -1.9371   -1.0925    0.0069 S   0  0  0  0  0  0  0  0  0  0  0  0
    1.9952    0.8462   -0.0053 S   0  0  0  0  0  0  0  0  0  0  0  0
    6.2003    1.2676   -0.0065 H   0  0  0  0  0  0  0  0  0  0  0  0
    4.5132    1.9886   -0.0129 H   0  0  0  0  0  0  0  0  0  0  0  0
    5.2509   -0.9851    0.0077 H   0  0  0  0  0  0  0  0  0  0  0  0
    3.1871   -2.5598    0.0141 H   0  0  0  0  0  0  0  0  0  0  0  0
    0.5887   -2.4803    0.0128 H   0  0  0  0  0  0  0  0  0  0  0  0
   -0.5258    2.2268   -0.0151 H   0  0  0  0  0  0  0  0  0  0  0  0
   -3.1161    2.3181   -0.0141 H   0  0  0  0  0  0  0  0  0  0  0  0
   -4.7279   -1.2709    0.0095 H   0  0  0  0  0  0  0  0  0  0  0  0
   -5.4109    1.7160   -0.0084 H   0  0  0  0  0  0  0  0  0  0  0  0
   -6.5745    0.3039    0.0010 H   0  0  0  0  0  0  0  0  0  0  0  0
  1  2  2  0  0  0  0
  2  3  1  0  0  0  0
  3  4  4  0  0  0  0
  4  5  4  0  0  0  0
  5  6  4  0  0  0  0
  6  7  1  0  0  0  0
  7  8  4  0  0  0  0
  8  9  4  0  0  0  0
  9 10  4  0  0  0  0
 10 11  1  0  0  0  0
 11 12  2  0  0  0  0
  7 13  1  0  0  0  0
 10 13  1  0  0  0  0
  3 14  1  0  0  0  0
  6 14  1  0  0  0  0
  1 15  1  0  0  0  0
  1 16  1  0  0  0  0
  2 17  1  0  0  0  0
  4 18  1  0  0  0  0
  5 19  1  0  0  0  0
  8 20  1  0  0  0  0
  9 21  1  0  0  0  0
 11 22  1  0  0  0  0
 12 23  1  0  0  0  0
 12 24  1  0  0  0  0
M  END
