
 OpenBabel02032211083D

 38 39  0  0  1  0  0  0  0  0999 V2000
    1.0759    0.7898   -0.6387 C   0  0  0  0  0  0  0  0  0  0  0  0
    2.0887    0.2180    0.0261 C   0  0  0  0  0  0  0  0  0  0  0  0
    2.7612   -1.0555   -0.3599 C   0  0  0  0  0  0  0  0  0  0  0  0
    3.7876   -1.5280    0.4630 C   0  0  0  0  0  0  0  0  0  0  0  0
    4.4558   -2.7125    0.1662 C   0  0  0  0  0  0  0  0  0  0  0  0
    4.1153   -3.4684   -0.9747 C   0  0  0  0  0  0  0  0  0  0  0  0
    4.7437   -4.6368   -1.2960 O   0  0  0  0  0  0  0  0  0  0  0  0
    5.8590   -5.2286   -0.7220 C   0  0  0  0  0  0  0  0  0  0  0  0
    5.4948   -6.6247   -0.1663 C   0  0  2  0  0  0  0  0  0  0  0  0
    4.4134   -6.6076    0.9382 C   0  0  0  0  0  0  0  0  0  0  0  0
    4.9856   -6.0555    2.2421 C   0  0  0  0  0  0  0  0  0  0  0  0
    6.2151   -6.8790    2.6124 C   0  0  0  0  0  0  0  0  0  0  0  0
    7.2149   -6.8443    1.4504 C   0  0  0  0  0  0  0  0  0  0  0  0
    6.6486   -7.3535    0.2484 O   0  0  0  0  0  0  0  0  0  0  0  0
    3.0800   -3.0052   -1.8232 C   0  0  0  0  0  0  0  0  0  0  0  0
    2.7264   -3.8059   -3.0396 C   0  0  0  0  0  0  0  0  0  0  0  0
    1.8058   -3.4652   -3.9533 C   0  0  0  0  0  0  0  0  0  0  0  0
    2.4139   -1.7999   -1.5035 C   0  0  0  0  0  0  0  0  0  0  0  0
    0.6556    1.7199   -0.2695 H   0  0  0  0  0  0  0  0  0  0  0  0
    0.6429    0.3698   -1.5362 H   0  0  0  0  0  0  0  0  0  0  0  0
    2.4406    0.7282    0.9192 H   0  0  0  0  0  0  0  0  0  0  0  0
    4.0765   -0.9766    1.3499 H   0  0  0  0  0  0  0  0  0  0  0  0
    5.2299   -3.0126    0.8508 H   0  0  0  0  0  0  0  0  0  0  0  0
    6.3267   -4.5943    0.0450 H   0  0  0  0  0  0  0  0  0  0  0  0
    6.6188   -5.3593   -1.5215 H   0  0  0  0  0  0  0  0  0  0  0  0
    5.0532   -7.1794   -1.0227 H   0  0  0  0  0  0  0  0  0  0  0  0
    4.0877   -7.6558    1.1217 H   0  0  0  0  0  0  0  0  0  0  0  0
    3.5211   -6.0277    0.6191 H   0  0  0  0  0  0  0  0  0  0  0  0
    4.2256   -6.1153    3.0508 H   0  0  0  0  0  0  0  0  0  0  0  0
    5.2716   -4.9916    2.1181 H   0  0  0  0  0  0  0  0  0  0  0  0
    5.9139   -7.9330    2.8010 H   0  0  0  0  0  0  0  0  0  0  0  0
    6.6829   -6.4756    3.5361 H   0  0  0  0  0  0  0  0  0  0  0  0
    8.0810   -7.4829    1.7235 H   0  0  0  0  0  0  0  0  0  0  0  0
    7.6262   -5.8247    1.3004 H   0  0  0  0  0  0  0  0  0  0  0  0
    3.2525   -4.7389   -3.2175 H   0  0  0  0  0  0  0  0  0  0  0  0
    1.2170   -2.5602   -3.9012 H   0  0  0  0  0  0  0  0  0  0  0  0
    1.6320   -4.1189   -4.8022 H   0  0  0  0  0  0  0  0  0  0  0  0
    1.6277   -1.4413   -2.1397 H   0  0  0  0  0  0  0  0  0  0  0  0
  1  2  2  0  0  0  0
  1 19  1  0  0  0  0
  1 20  1  0  0  0  0
  2  3  1  0  0  0  0
  2 21  1  0  0  0  0
  3  4  1  0  0  0  0
  3 18  2  0  0  0  0
  4  5  2  0  0  0  0
  4 22  1  0  0  0  0
  5  6  1  0  0  0  0
  5 23  1  0  0  0  0
  6  7  1  0  0  0  0
  6 15  2  0  0  0  0
  7  8  1  0  0  0  0
  8  9  1  0  0  0  0
  8 24  1  0  0  0  0
  8 25  1  0  0  0  0
  9 10  1  0  0  0  0
  9 14  1  0  0  0  0
  9 26  1  6  0  0  0
 10 11  1  0  0  0  0
 10 27  1  0  0  0  0
 10 28  1  0  0  0  0
 11 12  1  0  0  0  0
 11 29  1  0  0  0  0
 11 30  1  0  0  0  0
 12 13  1  0  0  0  0
 12 31  1  0  0  0  0
 12 32  1  0  0  0  0
 13 14  1  0  0  0  0
 13 33  1  0  0  0  0
 13 34  1  0  0  0  0
 15 16  1  0  0  0  0
 15 18  1  0  0  0  0
 16 17  2  0  0  0  0
 16 35  1  0  0  0  0
 17 36  1  0  0  0  0
 17 37  1  0  0  0  0
 18 38  1  0  0  0  0
M  END
