31

C          1.59557        0.56900        0.27079
C          2.38805       -0.18436       -0.49699
C          3.16798        0.37646       -1.61355
N          4.34996       -0.12831       -2.01315
C          4.70867        0.67896       -3.03224
C          5.97162        0.49653       -3.79245
C          6.52782       -0.70902       -3.95047
N          3.76750        1.63790       -3.23400
C          3.73240        2.66730       -4.14810
O          4.64540        2.82260       -4.94280
O          2.67020        3.52310       -4.14260
C          1.76871        3.77916       -5.17337
C          0.68307        2.68450       -5.25424
C          1.08635        5.12204       -4.86838
C          2.51500        3.89588       -6.51754
N          2.80292        1.44640       -2.34723
H          1.04078        0.11276        1.08446
H          1.49096        1.63602        0.10125
H          2.46364       -1.24791       -0.29121
H          6.48164        1.33583       -4.24311
H          6.07864       -1.60255       -3.52828
H          7.45143       -0.80885       -4.51177
H          0.14528        2.60062       -4.28567
H          1.11157        1.69308       -5.50175
H         -0.05627        2.93047       -6.04710
H          0.54162        5.06872       -3.90094
H          0.35945        5.38755       -5.66683
H          1.84161        5.93395       -4.79597
H          3.01605        2.94362       -6.78631
H          3.29028        4.69019       -6.45774
H          1.80960        4.15192       -7.33691
31

C          2.51469       -1.97142       -0.72938
C          2.16542       -0.74087       -1.11515
C          3.06816        0.12829       -1.88919
N          4.40937        0.06882       -1.79345
C          4.82863        1.02538       -2.64673
C          6.26612        1.32398       -2.87194
C          6.71258        1.77981       -4.04692
N          3.76750        1.63790       -3.23400
C          3.73240        2.66730       -4.14810
O          4.64540        2.82260       -4.94280
O          2.67020        3.52310       -4.14260
C          1.76871        3.77916       -5.17337
C          0.68307        2.68450       -5.25424
C          1.08635        5.12204       -4.86838
C          2.51500        3.89588       -6.51754
N          2.66655        1.07438       -2.76094
H          1.81572       -2.57754       -0.16186
H          3.48843       -2.38567       -0.97114
H          1.18059       -0.36653       -0.85213
H          6.99812        1.18161       -2.08993
H          6.04189        1.94881       -4.88357
H          7.76943        1.98856       -4.17947
H          0.14528        2.60062       -4.28567
H          1.11157        1.69308       -5.50175
H         -0.05627        2.93047       -6.04710
H          0.54162        5.06872       -3.90094
H          0.35945        5.38755       -5.66683
H          1.84161        5.93395       -4.79597
H          3.01605        2.94362       -6.78631
H          3.29028        4.69019       -6.45774
H          1.80960        4.15192       -7.33691
31

C          3.73027        0.51192        1.02980
C          2.99283        0.23400       -0.04908
C          3.43813        0.56284       -1.41403
N          4.15237       -0.28289       -2.17965
C          4.34812        0.41242       -3.31855
C          5.10363       -0.13750       -4.47313
C          5.29791        0.57446       -5.58805
N          3.76750        1.63790       -3.23400
C          3.73240        2.66730       -4.14810
O          4.64540        2.82260       -4.94280
O          2.67020        3.52310       -4.14260
C          1.76871        3.77916       -5.17337
C          0.68307        2.68450       -5.25424
C          1.08635        5.12204       -4.86838
C          2.51500        3.89588       -6.51754
N          3.19656        1.73016       -2.04280
H          3.36272        0.24921        2.01667
H          4.69714        0.99792        0.94500
H          2.03158       -0.25390        0.08189
H          5.52129       -1.13376       -4.44732
H          4.91006        1.58279       -5.69397
H          5.85464        0.14381       -6.41429
H          0.14528        2.60062       -4.28567
H          1.11157        1.69308       -5.50175
H         -0.05627        2.93047       -6.04710
H          0.54162        5.06872       -3.90094
H          0.35945        5.38755       -5.66683
H          1.84161        5.93395       -4.79597
H          3.01605        2.94362       -6.78631
H          3.29028        4.69019       -6.45774
H          1.80960        4.15192       -7.33691
31

C          4.82216       -2.48850       -3.29627
C          4.68451       -1.66534       -2.25295
C          4.19099       -0.28514       -2.39788
N          3.49802        0.35404       -1.43726
C          3.24231        1.56041       -1.98331
C          2.48486        2.61921       -1.26814
C          2.01147        2.43026       -0.03206
N          3.76750        1.63790       -3.23400
C          3.73240        2.66730       -4.14810
O          4.64540        2.82260       -4.94280
O          2.67020        3.52310       -4.14260
C          1.76871        3.77916       -5.17337
C          0.68307        2.68450       -5.25424
C          1.08635        5.12204       -4.86838
C          2.51500        3.89588       -6.51754
N          4.36272        0.48342       -3.49157
H          5.18776       -3.49869       -3.14175
H          4.57523       -2.17106       -4.30447
H          4.94262       -2.02482       -1.26131
H          2.29253        3.57861       -1.72661
H          2.16119        1.49463        0.49762
H          1.46175        3.22420        0.46348
H          0.14528        2.60062       -4.28567
H          1.11157        1.69308       -5.50175
H         -0.05627        2.93047       -6.04710
H          0.54162        5.06872       -3.90094
H          0.35945        5.38755       -5.66683
H          1.84161        5.93395       -4.79597
H          3.01605        2.94362       -6.78631
H          3.29028        4.69019       -6.45774
H          1.80960        4.15192       -7.33691
31

C          5.79743       -2.09349       -2.85557
C          4.68451       -1.66534       -2.25295
C          4.19099       -0.28514       -2.39788
N          3.49802        0.35404       -1.43726
C          3.24231        1.56041       -1.98331
C          2.48486        2.61921       -1.26814
C          1.15558        2.72136       -1.36953
N          3.76750        1.63790       -3.23400
C          3.73240        2.66730       -4.14810
O          4.64540        2.82260       -4.94280
O          2.67020        3.52310       -4.14260
C          2.67914        4.90124       -3.93915
C          3.52166        5.62165       -5.01369
C          1.22734        5.39410       -4.04546
C          3.21228        5.22862       -2.52991
N          4.36272        0.48342       -3.49157
H          6.12228       -3.12044       -2.72190
H          6.39126       -1.43533       -3.48200
H          4.12041       -2.35814       -1.63568
H          2.98681        3.34222       -0.64129
H          0.57713        2.03475       -1.97972
H          0.63136        3.50654       -0.83401
H          3.13729        5.38581       -6.02908
H          4.58933        5.32869       -4.96865
H          3.47625        6.72266       -4.86719
H          0.81446        5.16827       -5.05246
H          1.16841        6.49202       -3.87960
H          0.58927        4.88918       -3.28863
H          4.26471        4.90026       -2.40895
H          2.59839        4.71450       -1.75893
H          3.17357        6.32271       -2.34024
31

C          5.89174       -1.94398       -1.75295
C          4.68451       -1.66534       -2.25295
C          4.19099       -0.28514       -2.39788
N          3.49802        0.35404       -1.43726
C          3.24231        1.56041       -1.98331
C          2.48486        2.61921       -1.26814
C          1.15558        2.72136       -1.36953
N          3.76750        1.63790       -3.23400
C          3.73240        2.66730       -4.14810
O          4.64540        2.82260       -4.94280
O          2.67020        3.52310       -4.14260
C          2.45259        4.62664       -4.96454
C          2.38010        4.21401       -6.45045
C          1.10372        5.24400       -4.56283
C          3.56164        5.67652       -4.75211
N          4.36272        0.48342       -3.49157
H          6.21459       -2.97661       -1.66661
H          6.56538       -1.15737       -1.42787
H          4.04318       -2.48353       -2.56674
H          2.98681        3.34222       -0.64129
H          0.57713        2.03475       -1.97972
H          0.63136        3.50654       -0.83401
H          1.58080        3.45763       -6.60341
H          3.33739        3.78664       -6.80924
H          2.15520        5.09726       -7.08687
H          0.28350        4.50701       -4.70277
H          0.87907        6.14126       -5.17998
H          1.11813        5.54690       -3.49376
H          4.55605        5.27877       -5.04025
H          3.60541        5.97675       -3.68276
H          3.36704        6.58229       -5.36549
31

C          6.71434       -0.20158       -0.76024
C          5.52977       -0.66944       -1.16389
C          4.56894        0.15879       -1.91248
N          3.23548       -0.00525       -1.83178
C          2.75143        0.93423       -2.66962
C          1.29730        1.12620       -2.90386
C          0.78723        2.32469       -3.20579
N          3.76750        1.63790       -3.23400
C          3.73240        2.66730       -4.14810
O          4.64540        2.82260       -4.94280
O          2.67020        3.52310       -4.14260
C          2.65085        4.86972       -4.49895
C          2.57985        5.04372       -6.03131
C          1.39175        5.49473       -3.87767
C          3.89221        5.58864       -3.93366
N          4.90417        1.15335       -2.75794
H          7.39189       -0.84907       -0.21277
H          7.02065        0.81890       -0.96759
H          5.26430       -1.69732       -0.93544
H          0.60422        0.29985       -2.83740
H          1.41593        3.20554       -3.29069
H         -0.28012        2.43180       -3.37123
H          1.68522        4.52580       -6.43849
H          3.47804        4.63694       -6.53683
H          2.51333        6.12140       -6.29578
H          0.47876        4.99303       -4.26529
H          1.32675        6.57820       -4.11908
H          1.40640        5.38078       -2.77238
H          4.82853        5.17766       -4.36318
H          3.93548        5.46769       -2.82955
H          3.85800        6.67399       -4.16892
31

C          6.85020       -0.48300       -1.24597
C          5.52977       -0.66944       -1.16389
C          4.56894        0.15879       -1.91248
N          3.23548       -0.00525       -1.83178
C          2.75143        0.93423       -2.66962
C          1.29730        1.12620       -2.90386
C          0.65154        0.47671       -3.87795
N          3.76750        1.63790       -3.23400
C          3.73240        2.66730       -4.14810
O          4.64540        2.82260       -4.94280
O          2.67020        3.52310       -4.14260
C          2.65085        4.86972       -4.49895
C          3.06941        5.06648       -5.97188
C          1.20840        5.37243       -4.32987
C          3.57168        5.68136       -3.56585
N          4.90417        1.15335       -2.75794
H          7.52114       -1.11922       -0.67757
H          7.27435        0.29527       -1.87256
H          5.14867       -1.46065       -0.52518
H          0.71425        1.79920       -2.29167
H          1.16499       -0.21622       -4.53719
H         -0.41178        0.63898       -4.02321
H          2.40570        4.48173       -6.64415
H          4.11534        4.74799       -6.15177
H          2.99913        6.13939       -6.25419
H          0.51960        4.80189       -4.98983
H          1.13151        6.45079       -4.58995
H          0.87108        5.23889       -3.27952
H          4.62903        5.36050       -3.66141
H          3.26229        5.54332       -2.50718
H          3.52160        6.76412       -3.81006
31

C          5.14135       -1.65077       -0.34464
C          5.52977       -0.66944       -1.16389
C          4.56894        0.15879       -1.91248
N          3.23548       -0.00525       -1.83178
C          2.75143        0.93423       -2.66962
C          1.29730        1.12620       -2.90386
C          0.65154        0.47671       -3.87795
N          3.76750        1.63790       -3.23400
C          3.73240        2.66730       -4.14810
O          4.64540        2.82260       -4.94280
O          2.67020        3.52310       -4.14260
C          2.13628        4.23565       -5.21403
C          1.63421        3.28742       -6.32408
C          0.94071        5.04245       -4.68333
C          3.18478        5.21537       -5.77810
N          4.90417        1.15335       -2.75794
H          5.88507       -2.23432        0.18863
H          4.09129       -1.88218       -0.19617
H          6.59094       -0.47161       -1.28209
H          0.71425        1.79920       -2.29167
H          1.16499       -0.21622       -4.53719
H         -0.41178        0.63898       -4.02321
H          0.87858        2.58164       -5.91754
H          2.45916        2.69634       -6.76891
H          1.16540        3.86914       -7.14723
H          0.16799        4.36083       -4.26643
H          0.47719        5.64447       -5.49519
H          1.26573        5.73255       -3.87526
H          4.06488        4.67649       -6.18445
H          3.53791        5.90131       -4.97787
H          2.75037        5.82482       -6.59930
31

C          1.81712       -0.35062        0.19785
C          2.99283        0.23400       -0.04908
C          3.43813        0.56284       -1.41403
N          4.15237       -0.28289       -2.17965
C          4.34812        0.41242       -3.31855
C          5.10363       -0.13750       -4.47313
C          5.29791        0.57446       -5.58805
N          3.76750        1.63790       -3.23400
C          3.73240        2.66730       -4.14810
O          4.64540        2.82260       -4.94280
O          2.67020        3.52310       -4.14260
C          2.67914        4.90124       -3.93915
C          3.07720        5.65585       -5.22583
C          1.25314        5.32057       -3.54848
C          3.63633        5.26367       -2.78597
N          3.19656        1.73016       -2.04280
H          1.52933       -0.57259        1.22055
H          1.13486       -0.61181       -0.60498
H          3.64426        0.47878        0.78454
H          5.52129       -1.13376       -4.44732
H          4.91006        1.58279       -5.69397
H          5.85464        0.14381       -6.41429
H          2.38730        5.39475       -6.05665
H          4.11140        5.41668       -5.54363
H          3.02952        6.75415       -5.06083
H          0.53873        5.06809       -4.36174
H          1.19937        6.41522       -3.36074
H          0.93062        4.78933       -2.62727
H          4.68333        4.98886       -3.02751
H          3.34176        4.72454       -1.85961
H          3.60974        6.35566       -2.58261
