
 OpenBabel02012213543D

 24 24  0  0  0  0  0  0  0  0999 V2000
    2.9063   -0.5173    0.0180 C   0  0  0  0  0  0  0  0  0  0  0  0
    1.3977   -0.4716    0.0080 C   0  0  0  0  0  0  0  0  0  0  0  0
    0.6915   -1.6790    0.0039 C   0  0  0  0  0  0  0  0  0  0  0  0
   -0.6967   -1.6899   -0.0050 C   0  0  0  0  0  0  0  0  0  0  0  0
   -1.4256   -0.4943   -0.0116 C   0  0  0  0  0  0  0  0  0  0  0  0
   -2.9318   -0.5811   -0.0206 C   0  0  0  0  0  0  0  0  0  0  0  0
   -0.7366    0.7504   -0.0091 C   0  0  0  0  0  0  0  0  0  0  0  0
   -1.5026    2.0588   -0.0188 C   0  0  0  0  0  0  0  0  0  0  0  0
    0.6912    0.7587    0.0025 C   0  0  0  0  0  0  0  0  0  0  0  0
    1.4847    2.0526    0.0093 C   0  0  0  0  0  0  0  0  0  0  0  0
    3.2887   -1.5603    0.0199 H   0  0  0  0  0  0  0  0  0  0  0  0
    3.2949   -0.0124    0.9267 H   0  0  0  0  0  0  0  0  0  0  0  0
    3.3067   -0.0118   -0.8853 H   0  0  0  0  0  0  0  0  0  0  0  0
    1.2182   -2.6255    0.0083 H   0  0  0  0  0  0  0  0  0  0  0  0
   -1.2057   -2.6461   -0.0071 H   0  0  0  0  0  0  0  0  0  0  0  0
   -3.2879   -1.6333   -0.0195 H   0  0  0  0  0  0  0  0  0  0  0  0
   -3.3332   -0.0914   -0.9326 H   0  0  0  0  0  0  0  0  0  0  0  0
   -3.3435   -0.0865    0.8844 H   0  0  0  0  0  0  0  0  0  0  0  0
   -2.6019    1.9405   -0.0297 H   0  0  0  0  0  0  0  0  0  0  0  0
   -1.2346    2.6405   -0.9259 H   0  0  0  0  0  0  0  0  0  0  0  0
   -1.2522    2.6456    0.8898 H   0  0  0  0  0  0  0  0  0  0  0  0
    0.8663    2.9687    0.0058 H   0  0  0  0  0  0  0  0  0  0  0  0
    2.1338    2.0982   -0.8898 H   0  0  0  0  0  0  0  0  0  0  0  0
    2.1191    2.0963    0.9190 H   0  0  0  0  0  0  0  0  0  0  0  0
  1  2  1  0  0  0  0
  1 11  1  0  0  0  0
  1 12  1  0  0  0  0
  1 13  1  0  0  0  0
  2  3  1  0  0  0  0
  2  9  2  0  0  0  0
  3  4  2  0  0  0  0
  3 14  1  0  0  0  0
  4  5  1  0  0  0  0
  4 15  1  0  0  0  0
  5  6  1  0  0  0  0
  5  7  2  0  0  0  0
  6 16  1  0  0  0  0
  6 17  1  0  0  0  0
  6 18  1  0  0  0  0
  7  8  1  0  0  0  0
  7  9  1  0  0  0  0
  8 19  1  0  0  0  0
  8 20  1  0  0  0  0
  8 21  1  0  0  0  0
  9 10  1  0  0  0  0
 10 22  1  0  0  0  0
 10 23  1  0  0  0  0
 10 24  1  0  0  0  0
M  END
