
  xtb     02032211343D
 xtb: 6.4.1 (23d549d)
 20 20  0     0  0            999 V2000
   -2.3014    3.9950   -0.0203 C   0  0  0  0  0  0  0  0  0  0  0  0
   -1.1069    3.4182    0.0266 C   0  0  0  0  0  0  0  0  0  0  0  0
   -0.8296    1.9857    0.0167 C   0  0  0  0  0  0  0  0  0  0  0  0
   -1.8396    1.0231    0.0032 C   0  0  0  0  0  0  0  0  0  0  0  0
   -1.5061   -0.3186   -0.0066 C   0  0  0  0  0  0  0  0  0  0  0  0
   -2.7690   -1.5006   -0.0225 Cl  0  0  0  0  0  0  0  0  0  0  0  0
   -0.1893   -0.7449   -0.0035 C   0  0  0  0  0  0  0  0  0  0  0  0
    0.8328    0.2050    0.0112 C   0  0  0  0  0  0  0  0  0  0  0  0
    2.2446   -0.1473    0.0166 C   0  0  0  0  0  0  0  0  0  0  0  0
    2.7937   -1.3531    0.0043 C   0  0  0  0  0  0  0  0  0  0  0  0
    2.1838   -2.5297   -0.0159 F   0  0  0  0  0  0  0  0  0  0  0  0
    4.1095   -1.5496    0.0109 F   0  0  0  0  0  0  0  0  0  0  0  0
    0.4958    1.5575    0.0220 C   0  0  0  0  0  0  0  0  0  0  0  0
   -2.4033    5.0664   -0.0094 H   0  0  0  0  0  0  0  0  0  0  0  0
   -3.2199    3.4367   -0.0730 H   0  0  0  0  0  0  0  0  0  0  0  0
   -0.2243    4.0439    0.0739 H   0  0  0  0  0  0  0  0  0  0  0  0
   -2.8774    1.3112    0.0027 H   0  0  0  0  0  0  0  0  0  0  0  0
    0.0251   -1.7998   -0.0114 H   0  0  0  0  0  0  0  0  0  0  0  0
    2.9456    0.6746    0.0321 H   0  0  0  0  0  0  0  0  0  0  0  0
    1.2852    2.2952    0.0335 H   0  0  0  0  0  0  0  0  0  0  0  0
  1  2  2  0  0  0  0
  2  3  1  0  0  0  0
  3  4  4  0  0  0  0
  4  5  4  0  0  0  0
  5  6  1  0  0  0  0
  5  7  4  0  0  0  0
  7  8  4  0  0  0  0
  8  9  1  0  0  0  0
  9 10  2  0  0  0  0
 10 11  1  0  0  0  0
 10 12  1  0  0  0  0
  3 13  4  0  0  0  0
  8 13  4  0  0  0  0
  1 14  1  0  0  0  0
  1 15  1  0  0  0  0
  2 16  1  0  0  0  0
  4 17  1  0  0  0  0
  7 18  1  0  0  0  0
  9 19  1  0  0  0  0
 13 20  1  0  0  0  0
M  END
