32

C          1.33093        1.37546        0.40756
C          2.21590        0.39220        0.19370
C          3.07420       -0.23450        1.23990
C          4.33580        0.32450        1.47680
C          5.19790       -0.20450        2.44540
C          6.52680        0.44850        2.62800
C          7.21089        0.50366        3.77900
C          4.77760       -1.32000        3.19580
C          3.51180       -1.91440        2.98370
C          3.02120       -3.14420        3.78510
C          4.05257       -3.64270        4.82684
C          1.72767       -2.78539        4.55048
C          2.73948       -4.30829        2.81094
C          2.67530       -1.35400        1.99330
H          0.75632        1.76493       -0.42691
H          1.15461        1.81444        1.38003
H          2.31259        0.03197       -0.82739
H          4.65200        1.18560        0.89750
H          6.98737        0.91595        1.76135
H          6.85553        0.07008        4.70372
H          8.17470        1.00238        3.80153
H          5.43870       -1.72200        3.93970
H          4.27471       -2.84928        5.57339
H          4.99787       -3.95843        4.33510
H          3.65772       -4.52177        5.38138
H          1.91466       -1.94837        5.25721
H          1.36030       -3.65887        5.13182
H          0.91021       -2.48364        3.86370
H          3.66649       -4.58355        2.26237
H          1.96194       -4.04144        2.06571
H          2.38183       -5.20502        3.36203
H          1.71070       -1.79820        1.81880
32

C          0.98362       -0.01479       -0.14030
C          2.21590        0.39220        0.19370
C          3.07420       -0.23450        1.23990
C          4.33580        0.32450        1.47680
C          5.19790       -0.20450        2.44540
C          6.52680        0.44850        2.62800
C          6.78631        1.45205        3.47732
C          4.77760       -1.32000        3.19580
C          3.51180       -1.91440        2.98370
C          3.02120       -3.14420        3.78510
C          4.05257       -3.64270        4.82684
C          1.72767       -2.78539        4.55048
C          2.73948       -4.30829        2.81094
C          2.67530       -1.35400        1.99330
H          0.44046        0.51493       -0.91656
H          0.48771       -0.85340        0.32905
H          2.61168        1.25101       -0.34253
H          4.65200        1.18560        0.89750
H          7.35911        0.08397        2.03126
H          6.03985        1.89206        4.12429
H          7.79306        1.85379        3.53425
H          5.43870       -1.72200        3.93970
H          4.27471       -2.84928        5.57339
H          4.99787       -3.95843        4.33510
H          3.65772       -4.52177        5.38138
H          1.91466       -1.94837        5.25721
H          1.36030       -3.65887        5.13182
H          0.91021       -2.48364        3.86370
H          3.66649       -4.58355        2.26237
H          1.96194       -4.04144        2.06571
H          2.38183       -5.20502        3.36203
H          1.71070       -1.79820        1.81880
32

C          1.33093        1.37546        0.40756
C          2.21590        0.39220        0.19370
C          3.07420       -0.23450        1.23990
C          4.33580        0.32450        1.47680
C          5.19790       -0.20450        2.44540
C          6.52680        0.44850        2.62800
C          6.97031        1.50810        1.93782
C          4.77760       -1.32000        3.19580
C          3.51180       -1.91440        2.98370
C          3.02120       -3.14420        3.78510
C          4.05257       -3.64270        4.82684
C          1.72767       -2.78539        4.55048
C          2.73948       -4.30829        2.81094
C          2.67530       -1.35400        1.99330
H          0.75632        1.76493       -0.42691
H          1.15461        1.81444        1.38003
H          2.31259        0.03197       -0.82739
H          4.65200        1.18560        0.89750
H          7.19424        0.04141        3.38333
H          6.39324        1.99990        1.16677
H          7.95591        1.90855        2.15322
H          5.43870       -1.72200        3.93970
H          4.27471       -2.84928        5.57339
H          4.99787       -3.95843        4.33510
H          3.65772       -4.52177        5.38138
H          1.91466       -1.94837        5.25721
H          1.36030       -3.65887        5.13182
H          0.91021       -2.48364        3.86370
H          3.66649       -4.58355        2.26237
H          1.96194       -4.04144        2.06571
H          2.38183       -5.20502        3.36203
H          1.71070       -1.79820        1.81880
32

C          1.31626       -0.25673       -0.55813
C          2.21590        0.39220        0.19370
C          3.07420       -0.23450        1.23990
C          4.33580        0.32450        1.47680
C          5.19790       -0.20450        2.44540
C          6.52680        0.44850        2.62800
C          7.64986        0.11395        1.97791
C          4.77760       -1.32000        3.19580
C          3.51180       -1.91440        2.98370
C          3.02120       -3.14420        3.78510
C          3.61052       -3.21323        5.21527
C          1.48263       -3.09789        3.92092
C          3.43626       -4.43384        3.04483
C          2.67530       -1.35400        1.99330
H          0.73845        0.29601       -1.29217
H          1.12590       -1.31784       -0.47274
H          2.31834        1.46105        0.02394
H          4.65200        1.18560        0.89750
H          6.59826        1.26618        3.34074
H          7.69875       -0.67838        1.24361
H          8.56607        0.65816        2.18423
H          5.43870       -1.72200        3.93970
H          3.31997       -2.31703        5.80569
H          4.71880       -3.29106        5.18840
H          3.22846       -4.10696        5.75515
H          1.16785       -2.17445        4.45309
H          1.11246       -3.97559        4.49407
H          0.97880       -3.11773        2.93264
H          4.54295       -4.48428        2.95125
H          2.99967       -4.48137        2.02587
H          3.09240       -5.33397        3.59913
H          1.71070       -1.79820        1.81880
32

C          2.20201        0.04910       -1.10160
C          2.21590        0.39220        0.19370
C          3.07420       -0.23450        1.23990
C          4.33580        0.32450        1.47680
C          5.19790       -0.20450        2.44540
C          6.52680        0.44850        2.62800
C          7.64986        0.11395        1.97791
C          4.77760       -1.32000        3.19580
C          3.51180       -1.91440        2.98370
C          3.02120       -3.14420        3.78510
C          4.05257       -3.64270        4.82684
C          1.72767       -2.78539        4.55048
C          2.73948       -4.30829        2.81094
C          2.67530       -1.35400        1.99330
H          1.53466        0.56812       -1.78238
H          2.82561       -0.73130       -1.51582
H          1.54139        1.18852        0.49810
H          4.65200        1.18560        0.89750
H          6.59826        1.26618        3.34074
H          7.69875       -0.67838        1.24361
H          8.56607        0.65816        2.18423
H          5.43870       -1.72200        3.93970
H          4.27471       -2.84928        5.57339
H          4.99787       -3.95843        4.33510
H          3.65772       -4.52177        5.38138
H          1.91466       -1.94837        5.25721
H          1.36030       -3.65887        5.13182
H          0.91021       -2.48364        3.86370
H          3.66649       -4.58355        2.26237
H          1.96194       -4.04144        2.06571
H          2.38183       -5.20502        3.36203
H          1.71070       -1.79820        1.81880
32

C          2.20201        0.04910       -1.10160
C          2.21590        0.39220        0.19370
C          3.07420       -0.23450        1.23990
C          4.33580        0.32450        1.47680
C          5.19790       -0.20450        2.44540
C          6.52680        0.44850        2.62800
C          7.21613        1.08280        1.66973
C          4.77760       -1.32000        3.19580
C          3.51180       -1.91440        2.98370
C          3.02120       -3.14420        3.78510
C          3.61052       -3.21323        5.21527
C          1.48263       -3.09789        3.92092
C          3.43626       -4.43384        3.04483
C          2.67530       -1.35400        1.99330
H          1.53466        0.56812       -1.78238
H          2.82561       -0.73130       -1.51582
H          1.54139        1.18852        0.49810
H          4.65200        1.18560        0.89750
H          6.97801        0.41625        3.61648
H          6.86548        1.18290        0.65169
H          8.17620        1.52793        1.91118
H          5.43870       -1.72200        3.93970
H          3.31997       -2.31703        5.80569
H          4.71880       -3.29106        5.18840
H          3.22846       -4.10696        5.75515
H          1.16785       -2.17445        4.45309
H          1.11246       -3.97559        4.49407
H          0.97880       -3.11773        2.93264
H          4.54295       -4.48428        2.95125
H          2.99967       -4.48137        2.02587
H          3.09240       -5.33397        3.59913
H          1.71070       -1.79820        1.81880
32

C          2.20201        0.04910       -1.10160
C          2.21590        0.39220        0.19370
C          3.07420       -0.23450        1.23990
C          4.33580        0.32450        1.47680
C          5.19790       -0.20450        2.44540
C          6.52680        0.44850        2.62800
C          6.97031        1.50810        1.93782
C          4.77760       -1.32000        3.19580
C          3.51180       -1.91440        2.98370
C          3.02120       -3.14420        3.78510
C          4.05257       -3.64270        4.82684
C          1.72767       -2.78539        4.55048
C          2.73948       -4.30829        2.81094
C          2.67530       -1.35400        1.99330
H          1.53466        0.56812       -1.78238
H          2.82561       -0.73130       -1.51582
H          1.54139        1.18852        0.49810
H          4.65200        1.18560        0.89750
H          7.19424        0.04141        3.38333
H          6.39324        1.99990        1.16677
H          7.95591        1.90855        2.15322
H          5.43870       -1.72200        3.93970
H          4.27471       -2.84928        5.57339
H          4.99787       -3.95843        4.33510
H          3.65772       -4.52177        5.38138
H          1.91466       -1.94837        5.25721
H          1.36030       -3.65887        5.13182
H          0.91021       -2.48364        3.86370
H          3.66649       -4.58355        2.26237
H          1.96194       -4.04144        2.06571
H          2.38183       -5.20502        3.36203
H          1.71070       -1.79820        1.81880
32

C          1.31626       -0.25673       -0.55813
C          2.21590        0.39220        0.19370
C          3.07420       -0.23450        1.23990
C          4.33580        0.32450        1.47680
C          5.19790       -0.20450        2.44540
C          6.52680        0.44850        2.62800
C          7.21089        0.50366        3.77900
C          4.77760       -1.32000        3.19580
C          3.51180       -1.91440        2.98370
C          3.02120       -3.14420        3.78510
C          4.05257       -3.64270        4.82684
C          1.72767       -2.78539        4.55048
C          2.73948       -4.30829        2.81094
C          2.67530       -1.35400        1.99330
H          0.73845        0.29601       -1.29217
H          1.12590       -1.31784       -0.47274
H          2.31834        1.46105        0.02394
H          4.65200        1.18560        0.89750
H          6.98737        0.91595        1.76135
H          6.85553        0.07008        4.70372
H          8.17470        1.00238        3.80153
H          5.43870       -1.72200        3.93970
H          4.27471       -2.84928        5.57339
H          4.99787       -3.95843        4.33510
H          3.65772       -4.52177        5.38138
H          1.91466       -1.94837        5.25721
H          1.36030       -3.65887        5.13182
H          0.91021       -2.48364        3.86370
H          3.66649       -4.58355        2.26237
H          1.96194       -4.04144        2.06571
H          2.38183       -5.20502        3.36203
H          1.71070       -1.79820        1.81880
32

C          2.55365        1.45669       -0.54691
C          2.21590        0.39220        0.19370
C          3.07420       -0.23450        1.23990
C          4.33580        0.32450        1.47680
C          5.19790       -0.20450        2.44540
C          6.52680        0.44850        2.62800
C          6.78631        1.45205        3.47732
C          4.77760       -1.32000        3.19580
C          3.51180       -1.91440        2.98370
C          3.02120       -3.14420        3.78510
C          4.05257       -3.64270        4.82684
C          1.72767       -2.78539        4.55048
C          2.73948       -4.30829        2.81094
C          2.67530       -1.35400        1.99330
H          1.85446        1.83370       -1.28662
H          3.50083        1.96981       -0.45174
H          1.23857       -0.04573        0.00718
H          4.65200        1.18560        0.89750
H          7.35911        0.08397        2.03126
H          6.03985        1.89206        4.12429
H          7.79306        1.85379        3.53425
H          5.43870       -1.72200        3.93970
H          4.27471       -2.84928        5.57339
H          4.99787       -3.95843        4.33510
H          3.65772       -4.52177        5.38138
H          1.91466       -1.94837        5.25721
H          1.36030       -3.65887        5.13182
H          0.91021       -2.48364        3.86370
H          3.66649       -4.58355        2.26237
H          1.96194       -4.04144        2.06571
H          2.38183       -5.20502        3.36203
H          1.71070       -1.79820        1.81880
32

C          2.55365        1.45669       -0.54691
C          2.21590        0.39220        0.19370
C          3.07420       -0.23450        1.23990
C          4.33580        0.32450        1.47680
C          5.19790       -0.20450        2.44540
C          6.52680        0.44850        2.62800
C          6.78631        1.45205        3.47732
C          4.77760       -1.32000        3.19580
C          3.51180       -1.91440        2.98370
C          3.02120       -3.14420        3.78510
C          3.61052       -3.21323        5.21527
C          1.48263       -3.09789        3.92092
C          3.43626       -4.43384        3.04483
C          2.67530       -1.35400        1.99330
H          1.85446        1.83370       -1.28662
H          3.50083        1.96981       -0.45174
H          1.23857       -0.04573        0.00718
H          4.65200        1.18560        0.89750
H          7.35911        0.08397        2.03126
H          6.03985        1.89206        4.12429
H          7.79306        1.85379        3.53425
H          5.43870       -1.72200        3.93970
H          3.31997       -2.31703        5.80569
H          4.71880       -3.29106        5.18840
H          3.22846       -4.10696        5.75515
H          1.16785       -2.17445        4.45309
H          1.11246       -3.97559        4.49407
H          0.97880       -3.11773        2.93264
H          4.54295       -4.48428        2.95125
H          2.99967       -4.48137        2.02587
H          3.09240       -5.33397        3.59913
H          1.71070       -1.79820        1.81880
