
 OpenBabel02032210433D

 30 31  0  0  0  0  0  0  0  0999 V2000
    1.0230   -0.0957    0.0787 C   0  0  0  0  0  0  0  0  0  0  0  0
    2.4742   -0.0456    0.1333 N   0  0  0  0  0  0  0  0  0  0  0  0
    3.2270    0.3464   -1.0260 C   0  0  0  0  0  0  0  0  0  0  0  0
    2.8386    1.5166   -1.6801 C   0  0  0  0  0  0  0  0  0  0  0  0
    3.5426    2.0138   -2.7651 C   0  0  0  0  0  0  0  0  0  0  0  0
    4.6845    1.3645   -3.2711 C   0  0  0  0  0  0  0  0  0  0  0  0
    5.4297    1.9389   -4.4571 C   0  0  0  0  0  0  0  0  0  0  0  0
    5.2306    3.1236   -5.0704 C   0  0  0  0  0  0  0  0  0  0  0  0
    4.3000    4.0316   -4.6892 F   0  0  0  0  0  0  0  0  0  0  0  0
    6.0198    3.4499   -6.1282 F   0  0  0  0  0  0  0  0  0  0  0  0
    4.3509   -0.3711   -1.5203 C   0  0  0  0  0  0  0  0  0  0  0  0
    5.0921    0.1407   -2.6402 C   0  0  0  0  0  0  0  0  0  0  0  0
    6.2170   -0.6016   -3.0884 C   0  0  0  0  0  0  0  0  0  0  0  0
    6.5802   -1.8027   -2.4857 C   0  0  0  0  0  0  0  0  0  0  0  0
    5.8359   -2.3095   -1.4335 C   0  0  0  0  0  0  0  0  0  0  0  0
    4.7334   -1.6091   -0.9577 C   0  0  0  0  0  0  0  0  0  0  0  0
    3.1134   -0.1437    1.4411 C   0  0  0  0  0  0  0  0  0  0  0  0
    0.6473    0.0557   -0.9563 H   0  0  0  0  0  0  0  0  0  0  0  0
    0.5912    0.6912    0.7333 H   0  0  0  0  0  0  0  0  0  0  0  0
    0.6729   -1.0912    0.4239 H   0  0  0  0  0  0  0  0  0  0  0  0
    1.9823    2.0769   -1.3241 H   0  0  0  0  0  0  0  0  0  0  0  0
    3.1550    2.9212   -3.1848 H   0  0  0  0  0  0  0  0  0  0  0  0
    6.2306    1.3728   -4.9016 H   0  0  0  0  0  0  0  0  0  0  0  0
    6.8429   -0.2961   -3.9058 H   0  0  0  0  0  0  0  0  0  0  0  0
    7.4387   -2.3528   -2.8501 H   0  0  0  0  0  0  0  0  0  0  0  0
    6.1112   -3.2558   -0.9854 H   0  0  0  0  0  0  0  0  0  0  0  0
    4.1792   -2.0762   -0.1655 H   0  0  0  0  0  0  0  0  0  0  0  0
    2.3615   -0.3372    2.2369 H   0  0  0  0  0  0  0  0  0  0  0  0
    3.6142    0.8190    1.6758 H   0  0  0  0  0  0  0  0  0  0  0  0
    3.8654   -0.9423    1.5144 H   0  0  0  0  0  0  0  0  0  0  0  0
  1  2  1  0  0  0  0
  1 18  1  0  0  0  0
  1 19  1  0  0  0  0
  1 20  1  0  0  0  0
  2  3  1  0  0  0  0
  2 17  1  0  0  0  0
  3  4  2  0  0  0  0
  3 11  1  0  0  0  0
  4  5  1  0  0  0  0
  4 21  1  0  0  0  0
  5  6  2  0  0  0  0
  5 22  1  0  0  0  0
  6  7  1  0  0  0  0
  6 12  1  0  0  0  0
  7  8  2  0  0  0  0
  7 23  1  0  0  0  0
  8  9  1  0  0  0  0
  8 10  1  0  0  0  0
 11 12  1  0  0  0  0
 11 16  2  0  0  0  0
 12 13  2  0  0  0  0
 13 14  1  0  0  0  0
 13 24  1  0  0  0  0
 14 15  2  0  0  0  0
 14 25  1  0  0  0  0
 15 16  1  0  0  0  0
 15 26  1  0  0  0  0
 16 27  1  0  0  0  0
 17 28  1  0  0  0  0
 17 29  1  0  0  0  0
 17 30  1  0  0  0  0
M  END
