16

C          2.81107        1.11963        0.40261
C          2.40500       -0.05190       -0.09820
C          3.08400       -0.73520       -1.21770
C          2.82700       -0.60680       -2.58310
N          3.61880       -1.36990       -3.38290
C          4.50380       -2.10430       -2.67060
C          5.48720       -3.02580       -3.26450
C          5.21447       -4.31574       -3.48131
S          4.34020       -1.83620       -1.01890
H          2.26652        1.56962        1.22651
H          3.67478        1.64458        0.01144
H          1.53112       -0.52623        0.33815
H          2.06610        0.03860       -2.99790
H          6.46683       -2.64258       -3.53394
H          4.24839       -4.74111       -3.22693
H          5.96816       -4.96112       -3.92077
16

C          1.33129       -0.54993        0.52414
C          2.40500       -0.05190       -0.09820
C          3.08400       -0.73520       -1.21770
C          2.82700       -0.60680       -2.58310
N          3.61880       -1.36990       -3.38290
C          4.50380       -2.10430       -2.67060
C          5.48720       -3.02580       -3.26450
C          6.71606       -2.63062       -3.60957
S          4.34020       -1.83620       -1.01890
H          0.87946        0.00267        1.34163
H          0.88920       -1.49774        0.23988
H          2.80015        0.90281        0.23561
H          2.06610        0.03860       -2.99790
H          5.20210       -4.06082       -3.42758
H          7.04312       -1.60545       -3.46465
H          7.41024       -3.34202       -4.04514
16

C          2.81107        1.11963        0.40261
C          2.40500       -0.05190       -0.09820
C          3.08400       -0.73520       -1.21770
C          2.82700       -0.60680       -2.58310
N          3.61880       -1.36990       -3.38290
C          4.50380       -2.10430       -2.67060
C          5.48720       -3.02580       -3.26450
C          6.71606       -2.63062       -3.60957
S          4.34020       -1.83620       -1.01890
H          2.26652        1.56962        1.22651
H          3.67478        1.64458        0.01144
H          1.53112       -0.52623        0.33815
H          2.06610        0.03860       -2.99790
H          5.20210       -4.06082       -3.42758
H          7.04312       -1.60545       -3.46465
H          7.41024       -3.34202       -4.04514
16

C          1.33129       -0.54993        0.52414
C          2.40500       -0.05190       -0.09820
C          3.08400       -0.73520       -1.21770
C          2.82700       -0.60680       -2.58310
N          3.61880       -1.36990       -3.38290
C          4.50380       -2.10430       -2.67060
C          5.48720       -3.02580       -3.26450
C          5.21447       -4.31574       -3.48131
S          4.34020       -1.83620       -1.01890
H          0.87946        0.00267        1.34163
H          0.88920       -1.49774        0.23988
H          2.80015        0.90281        0.23561
H          2.06610        0.03860       -2.99790
H          6.46683       -2.64258       -3.53394
H          4.24839       -4.74111       -3.22693
H          5.96816       -4.96112       -3.92077
16

C          3.01131        0.25011        1.05479
C          2.40500       -0.05190       -0.09820
C          3.08400       -0.73520       -1.21770
C          2.82700       -0.60680       -2.58310
N          3.61880       -1.36990       -3.38290
C          4.50380       -2.10430       -2.67060
C          5.48720       -3.02580       -3.26450
C          6.00415       -2.82888       -4.48077
S          4.34020       -1.83620       -1.01890
H          2.45510        0.75433        1.83851
H          4.05149        0.00782        1.23893
H          1.36062        0.21911       -0.22019
H          2.06610        0.03860       -2.99790
H          5.80107       -3.89459       -2.69369
H          5.71850       -1.97398       -5.08618
H          6.72608       -3.53296       -4.88173
16

C          2.81107        1.11963        0.40261
C          2.40500       -0.05190       -0.09820
C          3.08400       -0.73520       -1.21770
C          2.82700       -0.60680       -2.58310
N          3.61880       -1.36990       -3.38290
C          4.50380       -2.10430       -2.67060
C          5.48720       -3.02580       -3.26450
C          6.33355       -3.74189       -2.51869
S          4.34020       -1.83620       -1.01890
H          2.26652        1.56962        1.22651
H          3.67478        1.64458        0.01144
H          1.53112       -0.52623        0.33815
H          2.06610        0.03860       -2.99790
H          5.52500       -3.12482       -4.34520
H          6.33076       -3.67372       -1.43504
H          7.04342       -4.40924       -2.99663
16

C          3.01131        0.25011        1.05479
C          2.40500       -0.05190       -0.09820
C          3.08400       -0.73520       -1.21770
C          2.82700       -0.60680       -2.58310
N          3.61880       -1.36990       -3.38290
C          4.50380       -2.10430       -2.67060
C          5.48720       -3.02580       -3.26450
C          5.91135       -4.12168       -2.62851
S          4.34020       -1.83620       -1.01890
H          2.45510        0.75433        1.83851
H          4.05149        0.00782        1.23893
H          1.36062        0.21911       -0.22019
H          2.06610        0.03860       -2.99790
H          5.88051       -2.80529       -4.25234
H          5.54504       -4.38036       -1.63964
H          6.63788       -4.77421       -3.10183
16

C          1.85872        1.16422       -0.20222
C          2.40500       -0.05190       -0.09820
C          3.08400       -0.73520       -1.21770
C          2.82700       -0.60680       -2.58310
N          3.61880       -1.36990       -3.38290
C          4.50380       -2.10430       -2.67060
C          5.48720       -3.02580       -3.26450
C          5.21447       -4.31574       -3.48131
S          4.34020       -1.83620       -1.01890
H          1.37294        1.61067        0.65948
H          1.88230        1.72871       -1.12709
H          2.34658       -0.56550        0.85671
H          2.06610        0.03860       -2.99790
H          6.46683       -2.64258       -3.53394
H          4.24839       -4.74111       -3.22693
H          5.96816       -4.96112       -3.92077
16

C          1.12673        0.33835       -0.14210
C          2.40500       -0.05190       -0.09820
C          3.08400       -0.73520       -1.21770
C          2.82700       -0.60680       -2.58310
N          3.61880       -1.36990       -3.38290
C          4.50380       -2.10430       -2.67060
C          5.48720       -3.02580       -3.26450
C          6.71606       -2.63062       -3.60957
S          4.34020       -1.83620       -1.01890
H          0.68681        0.83555        0.71643
H          0.50437        0.17432       -1.01409
H          2.97432        0.14140        0.80599
H          2.06610        0.03860       -2.99790
H          5.20210       -4.06082       -3.42758
H          7.04312       -1.60545       -3.46465
H          7.41024       -3.34202       -4.04514
16

C          1.40621        0.82105       -0.26722
C          2.40500       -0.05190       -0.09820
C          3.08400       -0.73520       -1.21770
C          2.82700       -0.60680       -2.58310
N          3.61880       -1.36990       -3.38290
C          4.50380       -2.10430       -2.67060
C          5.48720       -3.02580       -3.26450
C          5.21447       -4.31574       -3.48131
S          4.34020       -1.83620       -1.01890
H          0.94864        1.28847        0.59879
H          1.03051        1.08285       -1.24951
H          2.73446       -0.27193        0.91278
H          2.06610        0.03860       -2.99790
H          6.46683       -2.64258       -3.53394
H          4.24839       -4.74111       -3.22693
H          5.96816       -4.96112       -3.92077
