
 OpenBabel02032210533D

 30 31  0  0  0  0  0  0  0  0999 V2000
    1.2303   -0.4327   -0.7320 C   0  0  0  0  0  0  0  0  0  0  0  0
    2.2732    0.1016   -0.0831 C   0  0  0  0  0  0  0  0  0  0  0  0
    3.1077   -0.6109    0.9247 C   0  0  0  0  0  0  0  0  0  0  0  0
    4.1760    0.0789    1.5104 C   0  0  0  0  0  0  0  0  0  0  0  0
    4.9980   -0.5375    2.4574 C   0  0  0  0  0  0  0  0  0  0  0  0
    4.7849   -1.8782    2.8551 C   0  0  0  0  0  0  0  0  0  0  0  0
    5.6835   -2.5535    3.8694 C   0  0  0  0  0  0  0  0  0  0  0  0
    6.6168   -1.8178    4.6369 C   0  0  0  0  0  0  0  0  0  0  0  0
    7.4499   -2.4465    5.5657 C   0  0  0  0  0  0  0  0  0  0  0  0
    7.3926   -3.8308    5.7654 C   0  0  0  0  0  0  0  0  0  0  0  0
    8.3148   -4.4402    6.7642 C   0  0  0  0  0  0  0  0  0  0  0  0
    8.3804   -5.7473    7.0506 C   0  0  0  0  0  0  0  0  0  0  0  0
    6.4708   -4.5771    5.0126 C   0  0  0  0  0  0  0  0  0  0  0  0
    5.6322   -3.9511    4.0861 C   0  0  0  0  0  0  0  0  0  0  0  0
    3.6999   -2.5619    2.2574 C   0  0  0  0  0  0  0  0  0  0  0  0
    2.8773   -1.9402    1.3133 C   0  0  0  0  0  0  0  0  0  0  0  0
    0.6857    0.1691   -1.4525 H   0  0  0  0  0  0  0  0  0  0  0  0
    0.8955   -1.4490   -0.5759 H   0  0  0  0  0  0  0  0  0  0  0  0
    2.5261    1.1329   -0.3177 H   0  0  0  0  0  0  0  0  0  0  0  0
    4.3822    1.1049    1.2303 H   0  0  0  0  0  0  0  0  0  0  0  0
    5.8048    0.0592    2.8483 H   0  0  0  0  0  0  0  0  0  0  0  0
    6.7200   -0.7494    4.5497 H   0  0  0  0  0  0  0  0  0  0  0  0
    8.1475   -1.8416    6.1329 H   0  0  0  0  0  0  0  0  0  0  0  0
    8.9903   -3.7813    7.3036 H   0  0  0  0  0  0  0  0  0  0  0  0
    7.7558   -6.4891    6.5713 H   0  0  0  0  0  0  0  0  0  0  0  0
    9.0895   -6.0950    7.7950 H   0  0  0  0  0  0  0  0  0  0  0  0
    6.3845   -5.6474    5.1228 H   0  0  0  0  0  0  0  0  0  0  0  0
    4.9625   -4.5940    3.5403 H   0  0  0  0  0  0  0  0  0  0  0  0
    3.4532   -3.5798    2.5073 H   0  0  0  0  0  0  0  0  0  0  0  0
    2.0656   -2.5192    0.8988 H   0  0  0  0  0  0  0  0  0  0  0  0
  1  2  2  0  0  0  0
  1 17  1  0  0  0  0
  1 18  1  0  0  0  0
  2  3  1  0  0  0  0
  2 19  1  0  0  0  0
  3  4  1  0  0  0  0
  3 16  2  0  0  0  0
  4  5  2  0  0  0  0
  4 20  1  0  0  0  0
  5  6  1  0  0  0  0
  5 21  1  0  0  0  0
  6  7  1  0  0  0  0
  6 15  2  0  0  0  0
  7  8  1  0  0  0  0
  7 14  2  0  0  0  0
  8  9  2  0  0  0  0
  8 22  1  0  0  0  0
  9 10  1  0  0  0  0
  9 23  1  0  0  0  0
 10 11  1  0  0  0  0
 10 13  2  0  0  0  0
 11 12  2  0  0  0  0
 11 24  1  0  0  0  0
 12 25  1  0  0  0  0
 12 26  1  0  0  0  0
 13 14  1  0  0  0  0
 13 27  1  0  0  0  0
 14 28  1  0  0  0  0
 15 16  1  0  0  0  0
 15 29  1  0  0  0  0
 16 30  1  0  0  0  0
M  END
