
  xtb     02032211243D
 xtb: 6.4.1 (23d549d)
 24 24  0     0  0            999 V2000
    2.2198    0.1854   -1.6800 c   0  0  0  0  0  0  0  0  0  0  0  0
    2.2149    0.0657   -0.3553 c   0  0  0  0  0  0  0  0  0  0  0  0
    2.4855    1.1219    0.5838 c   0  0  0  0  0  0  0  0  0  0  0  0
    2.7830    2.3963    0.2371 n   0  0  0  0  0  0  0  0  0  0  0  0
    2.9971    3.1872    1.2909 n   0  0  0  0  0  0  0  0  0  0  0  0
    2.8530    2.4155    2.3586 c   0  0  0  0  0  0  0  0  0  0  0  0
    2.9351    2.8628    3.6563 n   0  0  0  0  0  0  0  0  0  0  0  0
    3.2849    4.0882    4.1625 c   0  0  0  0  0  0  0  0  0  0  0  0
    3.6899    5.1332    3.1662 c   0  0  0  0  0  0  0  0  0  0  0  0
    3.2577    4.2588    5.3623 o   0  0  0  0  0  0  0  0  0  0  0  0
    2.5316    1.0812    1.9804 c   0  0  0  0  0  0  0  0  0  0  0  0
    2.2862   -0.0691    2.8233 c   0  0  0  0  0  0  0  0  0  0  0  0
    2.8523   -0.3047    4.0018 c   0  0  0  0  0  0  0  0  0  0  0  0
    2.0047   -0.6552   -2.3156 h   0  0  0  0  0  0  0  0  0  0  0  0
    2.4390    1.1123   -2.1827 h   0  0  0  0  0  0  0  0  0  0  0  0
    1.9954   -0.8919    0.0961 h   0  0  0  0  0  0  0  0  0  0  0  0
    2.8613    2.7806   -0.6893 h   0  0  0  0  0  0  0  0  0  0  0  0
    2.6526    2.1839    4.3546 h   0  0  0  0  0  0  0  0  0  0  0  0
    4.5248    4.7744    2.5700 h   0  0  0  0  0  0  0  0  0  0  0  0
    3.9672    6.0405    3.6954 h   0  0  0  0  0  0  0  0  0  0  0  0
    2.8649    5.3294    2.4867 h   0  0  0  0  0  0  0  0  0  0  0  0
    1.5855   -0.7900    2.4199 h   0  0  0  0  0  0  0  0  0  0  0  0
    3.6022    0.3396    4.4291 h   0  0  0  0  0  0  0  0  0  0  0  0
    2.6093   -1.1858    4.5703 h   0  0  0  0  0  0  0  0  0  0  0  0
  1  2  2  0  0  0  0
  2  3  1  0  0  0  0
  3  4  4  0  0  0  0
  4  5  1  0  0  0  0
  5  6  4  0  0  0  0
  6  7  1  0  0  0  0
  7  8  1  0  0  0  0
  8  9  1  0  0  0  0
  8 10  2  0  0  0  0
  3 11  4  0  0  0  0
  6 11  4  0  0  0  0
 11 12  1  0  0  0  0
 12 13  2  0  0  0  0
  1 14  1  0  0  0  0
  1 15  1  0  0  0  0
  2 16  1  0  0  0  0
  4 17  1  0  0  0  0
  7 18  1  0  0  0  0
  9 19  1  0  0  0  0
  9 20  1  0  0  0  0
  9 21  1  0  0  0  0
 12 22  1  0  0  0  0
 13 23  1  0  0  0  0
 13 24  1  0  0  0  0
M  END
