
  xtb     02012213453D
 xtb: 6.4.1 (23d549d)
 15 15  0     0  0            999 V2000
    1.0278   -0.1833    0.0110 c   0  0  0  0  0  0  0  0  0  0  0  0
    2.5067   -0.0187    0.0059 c   0  0  0  0  0  0  0  0  0  0  0  0
    3.3110    1.0862    0.0081 c   0  0  0  0  0  0  0  0  0  0  0  0
    2.9229    2.5245    0.0165 c   0  0  0  0  0  0  0  0  0  0  0  0
    4.6465    0.5908    0.0004 c   0  0  0  0  0  0  0  0  0  0  0  0
    4.5510   -0.7620   -0.0058 c   0  0  0  0  0  0  0  0  0  0  0  0
    3.2619   -1.1443   -0.0025 o   0  0  0  0  0  0  0  0  0  0  0  0
    0.5426    0.7876    0.0169 h   0  0  0  0  0  0  0  0  0  0  0  0
    0.7121   -0.7428    0.8910 h   0  0  0  0  0  0  0  0  0  0  0  0
    0.7053   -0.7355   -0.8710 h   0  0  0  0  0  0  0  0  0  0  0  0
    1.8424    2.6378    0.0219 h   0  0  0  0  0  0  0  0  0  0  0  0
    3.3215    3.0276   -0.8637 h   0  0  0  0  0  0  0  0  0  0  0  0
    3.3294    3.0194    0.8978 h   0  0  0  0  0  0  0  0  0  0  0  0
    5.5431    1.1765   -0.0004 h   0  0  0  0  0  0  0  0  0  0  0  0
    5.2917   -1.5367   -0.0124 h   0  0  0  0  0  0  0  0  0  0  0  0
  1  2  1  0  0  0  0
  2  3  2  0  0  0  0
  3  4  1  0  0  0  0
  3  5  4  0  0  0  0
  5  6  2  0  0  0  0
  2  7  1  0  0  0  0
  6  7  1  0  0  0  0
  1  8  1  0  0  0  0
  1  9  1  0  0  0  0
  1 10  1  0  0  0  0
  4 11  1  0  0  0  0
  4 12  1  0  0  0  0
  4 13  1  0  0  0  0
  5 14  1  0  0  0  0
  6 15  1  0  0  0  0
M  END
