
  xtb     02032211353D
 xtb: 6.4.1 (23d549d)
 35 35  0     0  0            999 V2000
   -4.5528   -2.1299    0.6622 C   0  0  0  0  0  0  0  0  0  0  0  0
   -3.4021   -2.1982   -0.0019 C   0  0  0  0  0  0  0  0  0  0  0  0
   -2.4757   -1.1125   -0.1619 C   0  0  0  0  0  0  0  0  0  0  0  0
   -1.2824   -1.1369   -0.8374 C   0  0  0  0  0  0  0  0  0  0  0  0
   -0.5890    0.0871   -0.8312 C   0  0  0  0  0  0  0  0  0  0  0  0
    0.7506    0.2642   -1.4749 C   0  0  0  0  0  0  0  0  0  0  0  0
    1.8787    0.1088   -0.4476 C   0  0  0  0  0  0  0  0  0  0  0  0
    3.2515    0.2839   -1.0920 C   0  0  0  0  0  0  0  0  0  0  0  0
    4.4006    0.2569   -0.0840 C   0  0  0  0  0  0  0  0  0  0  0  0
    4.6115   -1.1099    0.5640 C   0  0  0  0  0  0  0  0  0  0  0  0
    5.8337   -1.1142    1.4743 C   0  0  0  0  0  0  0  0  0  0  0  0
   -1.2595    1.0663   -0.1288 C   0  0  0  0  0  0  0  0  0  0  0  0
   -0.8529    2.4260    0.0924 C   0  0  0  0  0  0  0  0  0  0  0  0
   -1.5193    3.3119    0.8286 C   0  0  0  0  0  0  0  0  0  0  0  0
   -2.7615    0.4621    0.5135 S   0  0  0  0  0  0  0  0  0  0  0  0
   -5.2083   -2.9782    0.7484 H   0  0  0  0  0  0  0  0  0  0  0  0
   -4.8704   -1.2176    1.1396 H   0  0  0  0  0  0  0  0  0  0  0  0
   -3.0975   -3.1229   -0.4764 H   0  0  0  0  0  0  0  0  0  0  0  0
   -0.9138   -2.0186   -1.3333 H   0  0  0  0  0  0  0  0  0  0  0  0
    0.8190    1.2484   -1.9436 H   0  0  0  0  0  0  0  0  0  0  0  0
    0.8726   -0.4881   -2.2571 H   0  0  0  0  0  0  0  0  0  0  0  0
    1.8024   -0.8794    0.0091 H   0  0  0  0  0  0  0  0  0  0  0  0
    1.7489    0.8514    0.3432 H   0  0  0  0  0  0  0  0  0  0  0  0
    3.2713    1.2427   -1.6172 H   0  0  0  0  0  0  0  0  0  0  0  0
    3.4055   -0.5014   -1.8363 H   0  0  0  0  0  0  0  0  0  0  0  0
    4.2143    1.0002    0.6949 H   0  0  0  0  0  0  0  0  0  0  0  0
    5.3213    0.5435   -0.5988 H   0  0  0  0  0  0  0  0  0  0  0  0
    4.7392   -1.8626   -0.2176 H   0  0  0  0  0  0  0  0  0  0  0  0
    3.7313   -1.3814    1.1490 H   0  0  0  0  0  0  0  0  0  0  0  0
    6.7318   -0.8713    0.9103 H   0  0  0  0  0  0  0  0  0  0  0  0
    5.9691   -2.0923    1.9302 H   0  0  0  0  0  0  0  0  0  0  0  0
    5.7198   -0.3788    2.2678 H   0  0  0  0  0  0  0  0  0  0  0  0
    0.0718    2.7140   -0.3901 H   0  0  0  0  0  0  0  0  0  0  0  0
   -2.4392    3.0513    1.3254 H   0  0  0  0  0  0  0  0  0  0  0  0
   -1.1660    4.3196    0.9578 H   0  0  0  0  0  0  0  0  0  0  0  0
  1  2  2  0  0  0  0
  2  3  1  0  0  0  0
  3  4  2  0  0  0  0
  4  5  4  0  0  0  0
  5  6  1  0  0  0  0
  6  7  1  0  0  0  0
  7  8  1  0  0  0  0
  8  9  1  0  0  0  0
  9 10  1  0  0  0  0
 10 11  1  0  0  0  0
  5 12  4  0  0  0  0
 12 13  1  0  0  0  0
 13 14  2  0  0  0  0
  3 15  1  0  0  0  0
 12 15  1  0  0  0  0
  1 16  1  0  0  0  0
  1 17  1  0  0  0  0
  2 18  1  0  0  0  0
  4 19  1  0  0  0  0
  6 20  1  0  0  0  0
  6 21  1  0  0  0  0
  7 22  1  0  0  0  0
  7 23  1  0  0  0  0
  8 24  1  0  0  0  0
  8 25  1  0  0  0  0
  9 26  1  0  0  0  0
  9 27  1  0  0  0  0
 10 28  1  0  0  0  0
 10 29  1  0  0  0  0
 11 30  1  0  0  0  0
 11 31  1  0  0  0  0
 11 32  1  0  0  0  0
 13 33  1  0  0  0  0
 14 34  1  0  0  0  0
 14 35  1  0  0  0  0
M  END
