
 OpenBabel02012213483D

 44 46  0  0  0  0  0  0  0  0999 V2000
    2.5875    0.0633   -0.1291 C   0  0  0  0  0  0  0  0  0  0  0  0
    1.0878    0.0407   -0.0995 C   0  0  0  0  0  0  0  0  0  0  0  0
    0.3394    1.1031   -0.6153 C   0  0  0  0  0  0  0  0  0  0  0  0
   -1.0579    1.0640   -0.5846 C   0  0  0  0  0  0  0  0  0  0  0  0
   -1.7524   -0.0367   -0.0273 C   0  0  0  0  0  0  0  0  0  0  0  0
   -3.2672   -0.0568   -0.0219 C   0  0  0  0  0  0  0  0  0  0  0  0
   -3.9332    0.5779   -1.0899 C   0  0  0  0  0  0  0  0  0  0  0  0
   -5.3330    0.6192   -1.2048 C   0  0  0  0  0  0  0  0  0  0  0  0
   -5.8902    1.3839   -2.3852 C   0  0  0  0  0  0  0  0  0  0  0  0
   -6.1398    0.0129   -0.1973 C   0  0  0  0  0  0  0  0  0  0  0  0
   -7.6548    0.0065   -0.1988 C   0  0  0  0  0  0  0  0  0  0  0  0
   -8.4155   -0.0905   -1.3837 C   0  0  0  0  0  0  0  0  0  0  0  0
   -9.8116   -0.0892   -1.3563 C   0  0  0  0  0  0  0  0  0  0  0  0
  -10.4960    0.0072   -0.1421 C   0  0  0  0  0  0  0  0  0  0  0  0
  -11.9957    0.0218   -0.1064 C   0  0  0  0  0  0  0  0  0  0  0  0
   -9.7662    0.0865    1.0474 C   0  0  0  0  0  0  0  0  0  0  0  0
   -8.3670    0.0813    1.0221 C   0  0  0  0  0  0  0  0  0  0  0  0
   -5.4756   -0.5840    0.8937 C   0  0  0  0  0  0  0  0  0  0  0  0
   -4.0735   -0.6395    0.9998 C   0  0  0  0  0  0  0  0  0  0  0  0
   -3.5146   -1.2714    2.2557 C   0  0  0  0  0  0  0  0  0  0  0  0
   -0.9731   -1.1012    0.4776 C   0  0  0  0  0  0  0  0  0  0  0  0
    0.4229   -1.0611    0.4427 C   0  0  0  0  0  0  0  0  0  0  0  0
    2.9725    0.9951   -0.5951 H   0  0  0  0  0  0  0  0  0  0  0  0
    2.9625   -0.8033   -0.7135 H   0  0  0  0  0  0  0  0  0  0  0  0
    2.9808   -0.0009    0.9075 H   0  0  0  0  0  0  0  0  0  0  0  0
    0.8344    1.9667   -1.0423 H   0  0  0  0  0  0  0  0  0  0  0  0
   -1.5846    1.9188   -0.9848 H   0  0  0  0  0  0  0  0  0  0  0  0
   -3.3529    1.0378   -1.8773 H   0  0  0  0  0  0  0  0  0  0  0  0
   -5.0968    1.9324   -2.9352 H   0  0  0  0  0  0  0  0  0  0  0  0
   -6.6212    2.1425   -2.0335 H   0  0  0  0  0  0  0  0  0  0  0  0
   -6.3273    0.7121   -3.1418 H   0  0  0  0  0  0  0  0  0  0  0  0
   -7.9651   -0.2060   -2.3455 H   0  0  0  0  0  0  0  0  0  0  0  0
  -10.3564   -0.1683   -2.2893 H   0  0  0  0  0  0  0  0  0  0  0  0
  -12.4279   -0.0424   -1.1281 H   0  0  0  0  0  0  0  0  0  0  0  0
  -12.3462    0.9655    0.3618 H   0  0  0  0  0  0  0  0  0  0  0  0
  -12.3657   -0.8400    0.4869 H   0  0  0  0  0  0  0  0  0  0  0  0
  -10.2807    0.1579    1.9980 H   0  0  0  0  0  0  0  0  0  0  0  0
   -7.8541    0.1625    1.9701 H   0  0  0  0  0  0  0  0  0  0  0  0
   -6.0584   -1.0417    1.6807 H   0  0  0  0  0  0  0  0  0  0  0  0
   -4.3113   -1.4946    2.9962 H   0  0  0  0  0  0  0  0  0  0  0  0
   -2.8039   -0.5730    2.7462 H   0  0  0  0  0  0  0  0  0  0  0  0
   -3.0511   -2.2504    2.0529 H   0  0  0  0  0  0  0  0  0  0  0  0
   -1.4082   -1.9944    0.8692 H   0  0  0  0  0  0  0  0  0  0  0  0
    0.9874   -1.8993    0.8330 H   0  0  0  0  0  0  0  0  0  0  0  0
  1  2  1  0  0  0  0
  1 23  1  0  0  0  0
  1 24  1  0  0  0  0
  1 25  1  0  0  0  0
  2  3  1  0  0  0  0
  2 22  2  0  0  0  0
  3  4  2  0  0  0  0
  3 26  1  0  0  0  0
  4  5  1  0  0  0  0
  4 27  1  0  0  0  0
  5  6  1  0  0  0  0
  5 21  2  0  0  0  0
  6  7  1  0  0  0  0
  6 19  2  0  0  0  0
  7  8  2  0  0  0  0
  7 28  1  0  0  0  0
  8  9  1  0  0  0  0
  8 10  1  0  0  0  0
  9 29  1  0  0  0  0
  9 30  1  0  0  0  0
  9 31  1  0  0  0  0
 10 11  1  0  0  0  0
 10 18  2  0  0  0  0
 11 12  1  0  0  0  0
 11 17  2  0  0  0  0
 12 13  2  0  0  0  0
 12 32  1  0  0  0  0
 13 14  1  0  0  0  0
 13 33  1  0  0  0  0
 14 15  1  0  0  0  0
 14 16  2  0  0  0  0
 15 34  1  0  0  0  0
 15 35  1  0  0  0  0
 15 36  1  0  0  0  0
 16 17  1  0  0  0  0
 16 37  1  0  0  0  0
 17 38  1  0  0  0  0
 18 19  1  0  0  0  0
 18 39  1  0  0  0  0
 19 20  1  0  0  0  0
 20 40  1  0  0  0  0
 20 41  1  0  0  0  0
 20 42  1  0  0  0  0
 21 22  1  0  0  0  0
 21 43  1  0  0  0  0
 22 44  1  0  0  0  0
M  END
