
  xtb     02032211353D
 xtb: 6.4.1 (23d549d)
 41 41  0     0  0            999 V2000
   -4.0827    2.2796    1.6890 C   0  0  0  0  0  0  0  0  0  0  0  0
   -4.3236    1.3411    0.7760 C   0  0  0  0  0  0  0  0  0  0  0  0
   -3.3372    0.4714    0.1950 C   0  0  0  0  0  0  0  0  0  0  0  0
   -1.9852    0.3957    0.4214 C   0  0  0  0  0  0  0  0  0  0  0  0
   -1.3298   -0.5888   -0.3374 C   0  0  0  0  0  0  0  0  0  0  0  0
    0.1424   -0.8824   -0.2847 C   0  0  0  0  0  0  0  0  0  0  0  0
    0.9274    0.0055    0.6771 C   0  0  0  0  0  0  0  0  0  0  0  0
    2.4132   -0.3478    0.6703 C   0  0  0  0  0  0  0  0  0  0  0  0
    3.2099    0.5471    1.6168 C   0  0  0  0  0  0  0  0  0  0  0  0
    4.6782    0.1400    1.7472 C   0  0  0  0  0  0  0  0  0  0  0  0
    5.4845    0.1949    0.4474 C   0  0  0  0  0  0  0  0  0  0  0  0
    5.5181    1.5629   -0.2357 C   0  0  0  0  0  0  0  0  0  0  0  0
    6.1650    2.6459    0.6194 C   0  0  0  0  0  0  0  0  0  0  0  0
   -2.1976   -1.2808   -1.1613 C   0  0  0  0  0  0  0  0  0  0  0  0
   -1.8802   -2.3476   -2.0691 C   0  0  0  0  0  0  0  0  0  0  0  0
   -2.7600   -2.9781   -2.8436 C   0  0  0  0  0  0  0  0  0  0  0  0
   -3.8269   -0.7015   -0.9870 S   0  0  0  0  0  0  0  0  0  0  0  0
   -4.8736    2.8949    2.0796 H   0  0  0  0  0  0  0  0  0  0  0  0
   -3.0954    2.4648    2.0750 H   0  0  0  0  0  0  0  0  0  0  0  0
   -5.3330    1.1894    0.4157 H   0  0  0  0  0  0  0  0  0  0  0  0
   -1.4851    1.0392    1.1206 H   0  0  0  0  0  0  0  0  0  0  0  0
    0.5596   -0.7689   -1.2906 H   0  0  0  0  0  0  0  0  0  0  0  0
    0.2824   -1.9286    0.0063 H   0  0  0  0  0  0  0  0  0  0  0  0
    0.5350   -0.1153    1.6893 H   0  0  0  0  0  0  0  0  0  0  0  0
    0.8080    1.0522    0.3880 H   0  0  0  0  0  0  0  0  0  0  0  0
    2.7976   -0.2442   -0.3461 H   0  0  0  0  0  0  0  0  0  0  0  0
    2.5391   -1.3913    0.9700 H   0  0  0  0  0  0  0  0  0  0  0  0
    2.7551    0.4992    2.6101 H   0  0  0  0  0  0  0  0  0  0  0  0
    3.1405    1.5829    1.2798 H   0  0  0  0  0  0  0  0  0  0  0  0
    4.7242   -0.8831    2.1300 H   0  0  0  0  0  0  0  0  0  0  0  0
    5.1527    0.7839    2.4902 H   0  0  0  0  0  0  0  0  0  0  0  0
    5.0824   -0.5372   -0.2558 H   0  0  0  0  0  0  0  0  0  0  0  0
    6.5108   -0.1057    0.6746 H   0  0  0  0  0  0  0  0  0  0  0  0
    4.5055    1.8682   -0.5045 H   0  0  0  0  0  0  0  0  0  0  0  0
    6.0838    1.4632   -1.1657 H   0  0  0  0  0  0  0  0  0  0  0  0
    5.5735    2.8479    1.5086 H   0  0  0  0  0  0  0  0  0  0  0  0
    6.2520    3.5713    0.0541 H   0  0  0  0  0  0  0  0  0  0  0  0
    7.1617    2.3399    0.9307 H   0  0  0  0  0  0  0  0  0  0  0  0
   -0.8364   -2.6315   -2.0968 H   0  0  0  0  0  0  0  0  0  0  0  0
   -3.8052   -2.7160   -2.8360 H   0  0  0  0  0  0  0  0  0  0  0  0
   -2.4633   -3.7720   -3.5057 H   0  0  0  0  0  0  0  0  0  0  0  0
  1  2  2  0  0  0  0
  2  3  1  0  0  0  0
  3  4  4  0  0  0  0
  4  5  4  0  0  0  0
  5  6  1  0  0  0  0
  6  7  1  0  0  0  0
  7  8  1  0  0  0  0
  8  9  1  0  0  0  0
  9 10  1  0  0  0  0
 10 11  1  0  0  0  0
 11 12  1  0  0  0  0
 12 13  1  0  0  0  0
  5 14  4  0  0  0  0
 14 15  1  0  0  0  0
 15 16  2  0  0  0  0
  3 17  1  0  0  0  0
 14 17  1  0  0  0  0
  1 18  1  0  0  0  0
  1 19  1  0  0  0  0
  2 20  1  0  0  0  0
  4 21  1  0  0  0  0
  6 22  1  0  0  0  0
  6 23  1  0  0  0  0
  7 24  1  0  0  0  0
  7 25  1  0  0  0  0
  8 26  1  0  0  0  0
  8 27  1  0  0  0  0
  9 28  1  0  0  0  0
  9 29  1  0  0  0  0
 10 30  1  0  0  0  0
 10 31  1  0  0  0  0
 11 32  1  0  0  0  0
 11 33  1  0  0  0  0
 12 34  1  0  0  0  0
 12 35  1  0  0  0  0
 13 36  1  0  0  0  0
 13 37  1  0  0  0  0
 13 38  1  0  0  0  0
 15 39  1  0  0  0  0
 16 40  1  0  0  0  0
 16 41  1  0  0  0  0
M  END
