 xtb: 6.5.0 (unknown)
          08122213093D

 17  0  0     0  0            999 V2000
    2.7072   -2.6404   -0.1575 C   0  0  0  0  0  0  0  0  0  0  0  0
    1.5781   -2.0281    0.1769 C   0  0  0  0  0  0  0  0  0  0  0  0
    1.3466   -0.5968    0.0771 C   0  0  0  0  0  0  0  0  0  0  0  0
    2.3394    0.3400    0.0636 C   0  0  0  0  0  0  0  0  0  0  0  0
    1.7463    1.9459   -0.0261 S   0  0  0  0  0  0  0  0  0  0  0  0
    0.1315    1.3820   -0.0525 C   0  0  0  0  0  0  0  0  0  0  0  0
    0.0464    0.0176    0.0086 C   0  0  0  0  0  0  0  0  0  0  0  0
   -1.1840   -0.7430   -0.0270 C   0  0  0  0  0  0  0  0  0  0  0  0
   -2.4167   -0.2570   -0.0097 C   0  0  0  0  0  0  0  0  0  0  0  0
   -2.7793    1.0201    0.0522 F   0  0  0  0  0  0  0  0  0  0  0  0
   -3.5075   -1.0195   -0.0520 F   0  0  0  0  0  0  0  0  0  0  0  0
    2.8220   -3.7047   -0.0479 H   0  0  0  0  0  0  0  0  0  0  0  0
    3.5510   -2.1075   -0.5608 H   0  0  0  0  0  0  0  0  0  0  0  0
    0.7536   -2.6134    0.5610 H   0  0  0  0  0  0  0  0  0  0  0  0
    3.3962    0.1767    0.1276 H   0  0  0  0  0  0  0  0  0  0  0  0
   -0.6670    2.0924   -0.1197 H   0  0  0  0  0  0  0  0  0  0  0  0
   -1.1066   -1.8175   -0.0822 H   0  0  0  0  0  0  0  0  0  0  0  0
M  END
