25

C          1.48672        1.07144        0.38955
O          2.40263        0.06441        0.17248
C          3.12760       -0.53200        1.15480
O          2.56046       -1.12745        2.05971
C          4.60980       -0.44220        1.09470
N          5.30850       -1.47530        1.63720
C          6.66480       -1.54320        1.66410
N          7.25760       -2.68400        2.26620
C          7.41840       -0.48610        1.09970
C          8.92600       -0.43460        1.06200
C          6.72610        0.59360        0.53370
C          5.32380        0.63800        0.51940
C          4.64290        1.82970       -0.10390
H          1.04121        1.37143       -0.58120
H          1.98728        1.95379        0.84228
H          0.67614        0.71261        1.05938
H          6.65140       -3.41870        2.65930
H          8.27110       -2.82480        2.33950
H          9.43060       -1.30340        1.51440
H          9.27550        0.46990        1.60320
H          9.26380       -0.36990        0.00600
H          7.29190        1.41000        0.09870
H          5.37640        2.56680       -0.49500
H          4.01850        2.34760        0.65390
H          4.01000        1.50180       -0.95480
25

C          1.13408        0.57439        0.34803
O          2.40263        0.06441        0.17248
C          3.12760       -0.53200        1.15480
O          2.56046       -1.12745        2.05971
C          4.60980       -0.44220        1.09470
N          5.30850       -1.47530        1.63720
C          6.66480       -1.54320        1.66410
N          7.25760       -2.68400        2.26620
C          7.41840       -0.48610        1.09970
C          8.92600       -0.43460        1.06200
C          6.72610        0.59360        0.53370
C          5.32380        0.63800        0.51940
C          4.64290        1.82970       -0.10390
H          0.77844        0.99983       -0.61289
H          1.14709        1.37929        1.11355
H          0.43786       -0.23288        0.66118
H          6.65140       -3.41870        2.65930
H          8.27110       -2.82480        2.33950
H          9.43060       -1.30340        1.51440
H          9.27550        0.46990        1.60320
H          9.26380       -0.36990        0.00600
H          7.29190        1.41000        0.09870
H          5.37640        2.56680       -0.49500
H          4.01850        2.34760        0.65390
H          4.01000        1.50180       -0.95480
25

C          1.75929       -2.30742        2.06293
O          2.56098       -1.19416        2.19727
C          3.12760       -0.53200        1.15480
O          2.42207       -0.02456        0.29468
C          4.60980       -0.44220        1.09470
N          5.30850       -1.47530        1.63720
C          6.66480       -1.54320        1.66410
N          7.25760       -2.68400        2.26620
C          7.41840       -0.48610        1.09970
C          8.92600       -0.43460        1.06200
C          6.72610        0.59360        0.53370
C          5.32380        0.63800        0.51940
C          4.64290        1.82970       -0.10390
H          1.43237       -2.64200        3.06892
H          2.32515       -3.13096        1.57750
H          0.86031       -2.06004        1.45868
H          6.65140       -3.41870        2.65930
H          8.27110       -2.82480        2.33950
H          9.43060       -1.30340        1.51440
H          9.27550        0.46990        1.60320
H          9.26380       -0.36990        0.00600
H          7.29190        1.41000        0.09870
H          5.37640        2.56680       -0.49500
H          4.01850        2.34760        0.65390
H          4.01000        1.50180       -0.95480
25

C          1.51375        1.25995        1.33782
O          2.39559        0.48034        0.62041
C          3.12760       -0.53200        1.15480
O          2.56651       -1.48963        1.66781
C          4.60980       -0.44220        1.09470
N          5.30850       -1.47530        1.63720
C          6.66480       -1.54320        1.66410
N          7.25760       -2.68400        2.26620
C          7.41840       -0.48610        1.09970
C          8.92600       -0.43460        1.06200
C          6.72610        0.59360        0.53370
C          5.32380        0.63800        0.51940
C          4.64290        1.82970       -0.10390
H          1.05302        2.00544        0.65751
H          2.04971        1.79766        2.14879
H          0.71020        0.62708        1.77170
H          6.65140       -3.41870        2.65930
H          8.27110       -2.82480        2.33950
H          9.43060       -1.30340        1.51440
H          9.27550        0.46990        1.60320
H          9.26380       -0.36990        0.00600
H          7.29190        1.41000        0.09870
H          5.37640        2.56680       -0.49500
H          4.01850        2.34760        0.65390
H          4.01000        1.50180       -0.95480
25

C          1.73306       -2.50758        1.11704
O          2.56856       -1.61556        1.75449
C          3.12760       -0.53200        1.15480
O          2.41555        0.34241        0.68209
C          4.60980       -0.44220        1.09470
N          5.30850       -1.47530        1.63720
C          6.66480       -1.54320        1.66410
N          7.25760       -2.68400        2.26620
C          7.41840       -0.48610        1.09970
C          8.92600       -0.43460        1.06200
C          6.72610        0.59360        0.53370
C          5.32380        0.63800        0.51940
C          4.64290        1.82970       -0.10390
H          1.42179       -3.29119        1.83809
H          2.26361       -2.99092        0.26912
H          0.82673       -1.98328        0.74534
H          6.65140       -3.41870        2.65930
H          8.27110       -2.82480        2.33950
H          9.43060       -1.30340        1.51440
H          9.27550        0.46990        1.60320
H          9.26380       -0.36990        0.00600
H          7.29190        1.41000        0.09870
H          5.37640        2.56680       -0.49500
H          4.01850        2.34760        0.65390
H          4.01000        1.50180       -0.95480
25

C          1.46946        0.99655        0.28120
O          2.41119        0.62098        1.21511
C          3.12760       -0.53200        1.15480
O          2.55281       -1.61119        1.14836
C          4.60980       -0.44220        1.09470
N          5.30850       -1.47530        1.63720
C          6.66480       -1.54320        1.66410
N          7.25760       -2.68400        2.26620
C          7.41840       -0.48610        1.09970
C          8.92600       -0.43460        1.06200
C          6.72610        0.59360        0.53370
C          5.32380        0.63800        0.51940
C          4.64290        1.82970       -0.10390
H          1.04108        1.97750        0.57287
H          0.65125        0.24634        0.23879
H          1.94229        1.09607       -0.71931
H          6.65140       -3.41870        2.65930
H          8.27110       -2.82480        2.33950
H          9.43060       -1.30340        1.51440
H          9.27550        0.46990        1.60320
H          9.26380       -0.36990        0.00600
H          7.29190        1.41000        0.09870
H          5.37640        2.56680       -0.49500
H          4.01850        2.34760        0.65390
H          4.01000        1.50180       -0.95480
25

C          1.74157       -2.25641        2.13175
O          2.55224       -1.76273        1.13215
C          3.12760       -0.53200        1.15480
O          2.42988        0.46961        1.22569
C          4.60980       -0.44220        1.09470
N          5.30850       -1.47530        1.63720
C          6.66480       -1.54320        1.66410
N          7.25760       -2.68400        2.26620
C          7.41840       -0.48610        1.09970
C          8.92600       -0.43460        1.06200
C          6.72610        0.59360        0.53370
C          5.32380        0.63800        0.51940
C          4.64290        1.82970       -0.10390
H          1.41172       -3.27981        1.85844
H          0.84543       -1.61108        2.25229
H          2.30280       -2.30538        3.08940
H          6.65140       -3.41870        2.65930
H          8.27110       -2.82480        2.33950
H          9.43060       -1.30340        1.51440
H          9.27550        0.46990        1.60320
H          9.26380       -0.36990        0.00600
H          7.29190        1.41000        0.09870
H          5.37640        2.56680       -0.49500
H          4.01850        2.34760        0.65390
H          4.01000        1.50180       -0.95480
25

C          1.56936        0.95543        2.25414
O          2.41119        0.62098        1.21511
C          3.12760       -0.53200        1.15480
O          2.55281       -1.61119        1.14836
C          4.60980       -0.44220        1.09470
N          5.30850       -1.47530        1.63720
C          6.66480       -1.54320        1.66410
N          7.25760       -2.68400        2.26620
C          7.41840       -0.48610        1.09970
C          8.92600       -0.43460        1.06200
C          6.72610        0.59360        0.53370
C          5.32380        0.63800        0.51940
C          4.64290        1.82970       -0.10390
H          1.11300        1.94510        2.04650
H          2.13990        1.01615        3.20538
H          0.75939        0.20064        2.34755
H          6.65140       -3.41870        2.65930
H          8.27110       -2.82480        2.33950
H          9.43060       -1.30340        1.51440
H          9.27550        0.46990        1.60320
H          9.26380       -0.36990        0.00600
H          7.29190        1.41000        0.09870
H          5.37640        2.56680       -0.49500
H          4.01850        2.34760        0.65390
H          4.01000        1.50180       -0.95480
25

C          1.67487       -2.18890        0.15813
O          2.55224       -1.76273        1.13215
C          3.12760       -0.53200        1.15480
O          2.42988        0.46961        1.22569
C          4.60980       -0.44220        1.09470
N          5.30850       -1.47530        1.63720
C          6.66480       -1.54320        1.66410
N          7.25760       -2.68400        2.26620
C          7.41840       -0.48610        1.09970
C          8.92600       -0.43460        1.06200
C          6.72610        0.59360        0.53370
C          5.32380        0.63800        0.51940
C          4.64290        1.82970       -0.10390
H          1.35903       -3.22804        0.38455
H          2.16923       -2.17309       -0.83656
H          0.77526       -1.53702        0.14273
H          6.65140       -3.41870        2.65930
H          8.27110       -2.82480        2.33950
H          9.43060       -1.30340        1.51440
H          9.27550        0.46990        1.60320
H          9.26380       -0.36990        0.00600
H          7.29190        1.41000        0.09870
H          5.37640        2.56680       -0.49500
H          4.01850        2.34760        0.65390
H          4.01000        1.50180       -0.95480
25

C          1.48281        0.32021       -0.40003
O          2.39559        0.48034        0.62041
C          3.12760       -0.53200        1.15480
O          2.56651       -1.48963        1.66781
C          4.60980       -0.44220        1.09470
N          5.30850       -1.47530        1.63720
C          6.66480       -1.54320        1.66410
N          7.25760       -2.68400        2.26620
C          7.41840       -0.48610        1.09970
C          8.92600       -0.43460        1.06200
C          6.72610        0.59360        0.53370
C          5.32380        0.63800        0.51940
C          4.64290        1.82970       -0.10390
H          1.03259        1.30507       -0.64128
H          0.67575       -0.37587       -0.08667
H          1.98930       -0.07333       -1.30726
H          6.65140       -3.41870        2.65930
H          8.27110       -2.82480        2.33950
H          9.43060       -1.30340        1.51440
H          9.27550        0.46990        1.60320
H          9.26380       -0.36990        0.00600
H          7.29190        1.41000        0.09870
H          5.37640        2.56680       -0.49500
H          4.01850        2.34760        0.65390
H          4.01000        1.50180       -0.95480
