23

C          2.11921        0.68037       -1.21862
C          2.48630        0.05630       -0.09090
C          3.16110       -1.27200       -0.02260
C          4.56000       -1.29680       -0.03540
C          5.25150       -2.50280        0.02120
C          4.56460       -3.72400        0.09360
C          5.37110       -4.99730        0.15050
C          3.14310       -3.73130        0.11280
C          2.39890       -5.03230        0.19510
C          2.02151       -5.64297        1.32795
C          2.46120       -2.49290        0.05270
H          1.63420        1.64927       -1.15675
H          2.28266        0.26916       -2.20533
H          2.27379        0.56760        0.84459
H          5.12550       -0.37400       -0.09160
H          6.33440       -2.48020        0.00710
H          6.46370       -4.79770        0.12650
H          5.12540       -5.63790       -0.72250
H          5.14720       -5.54410        1.09040
H          2.13327       -5.54526       -0.72210
H          2.21983       -5.25237        2.31586
H          1.48712       -6.58618        1.26983
H          1.38870       -2.47550        0.06380
23

C          2.14139        0.80400        0.96644
C          2.48630        0.05630       -0.09090
C          3.16110       -1.27200       -0.02260
C          4.56000       -1.29680       -0.03540
C          5.25150       -2.50280        0.02120
C          4.56460       -3.72400        0.09360
C          5.37110       -4.99730        0.15050
C          3.14310       -3.73130        0.11280
C          2.39890       -5.03230        0.19510
C          1.99269       -5.76442       -0.85260
C          2.46120       -2.49290        0.05270
H          1.65078        1.75859        0.80562
H          2.32431        0.50603        1.98974
H          2.24906        0.45642       -1.07343
H          5.12550       -0.37400       -0.09160
H          6.33440       -2.48020        0.00710
H          6.46370       -4.79770        0.12650
H          5.12540       -5.63790       -0.72250
H          5.14720       -5.54410        1.09040
H          2.15311       -5.43691        1.17021
H          2.16302       -5.48547       -1.88266
H          1.45820       -6.69273       -0.67609
H          1.38870       -2.47550        0.06380
23

C          1.29981        0.35034        0.45843
C          2.48630        0.05630       -0.09090
C          3.16110       -1.27200       -0.02260
C          4.56000       -1.29680       -0.03540
C          5.25150       -2.50280        0.02120
C          4.56460       -3.72400        0.09360
C          5.37110       -4.99730        0.15050
C          3.14310       -3.73130        0.11280
C          2.39890       -5.03230        0.19510
C          1.99269       -5.76442       -0.85260
C          2.46120       -2.49290        0.05270
H          0.89582        1.35152        0.34778
H          0.70881       -0.36485        1.01397
H          2.98914        0.85519       -0.63002
H          5.12550       -0.37400       -0.09160
H          6.33440       -2.48020        0.00710
H          6.46370       -4.79770        0.12650
H          5.12540       -5.63790       -0.72250
H          5.14720       -5.54410        1.09040
H          2.15311       -5.43691        1.17021
H          2.16302       -5.48547       -1.88266
H          1.45820       -6.69273       -0.67609
H          1.38870       -2.47550        0.06380
23

C          1.28860        0.28787       -0.64576
C          2.48630        0.05630       -0.09090
C          3.16110       -1.27200       -0.02260
C          4.56000       -1.29680       -0.03540
C          5.25150       -2.50280        0.02120
C          4.56460       -3.72400        0.09360
C          5.37110       -4.99730        0.15050
C          3.14310       -3.73130        0.11280
C          2.39890       -5.03230        0.19510
C          1.99269       -5.76442       -0.85260
C          2.46120       -2.49290        0.05270
H          0.88745        1.29627       -0.64388
H          0.68776       -0.48455       -1.10595
H          3.00164        0.91138        0.33922
H          5.12550       -0.37400       -0.09160
H          6.33440       -2.48020        0.00710
H          6.46370       -4.79770        0.12650
H          5.12540       -5.63790       -0.72250
H          5.14720       -5.54410        1.09040
H          2.15311       -5.43691        1.17021
H          2.16302       -5.48547       -1.88266
H          1.45820       -6.69273       -0.67609
H          1.38870       -2.47550        0.06380
23

C          2.11921        0.68037       -1.21862
C          2.48630        0.05630       -0.09090
C          3.16110       -1.27200       -0.02260
C          4.56000       -1.29680       -0.03540
C          5.25150       -2.50280        0.02120
C          4.56460       -3.72400        0.09360
C          5.37110       -4.99730        0.15050
C          3.14310       -3.73130        0.11280
C          2.39890       -5.03230        0.19510
C          1.99269       -5.76442       -0.85260
C          2.46120       -2.49290        0.05270
H          1.63420        1.64927       -1.15675
H          2.28266        0.26916       -2.20533
H          2.27379        0.56760        0.84459
H          5.12550       -0.37400       -0.09160
H          6.33440       -2.48020        0.00710
H          6.46370       -4.79770        0.12650
H          5.12540       -5.63790       -0.72250
H          5.14720       -5.54410        1.09040
H          2.15311       -5.43691        1.17021
H          2.16302       -5.48547       -1.88266
H          1.45820       -6.69273       -0.67609
H          1.38870       -2.47550        0.06380
23

C          2.14139        0.80400        0.96644
C          2.48630        0.05630       -0.09090
C          3.16110       -1.27200       -0.02260
C          4.56000       -1.29680       -0.03540
C          5.25150       -2.50280        0.02120
C          4.56460       -3.72400        0.09360
C          5.37110       -4.99730        0.15050
C          3.14310       -3.73130        0.11280
C          2.39890       -5.03230        0.19510
C          2.02151       -5.64297        1.32795
C          2.46120       -2.49290        0.05270
H          1.65078        1.75859        0.80562
H          2.32431        0.50603        1.98974
H          2.24906        0.45642       -1.07343
H          5.12550       -0.37400       -0.09160
H          6.33440       -2.48020        0.00710
H          6.46370       -4.79770        0.12650
H          5.12540       -5.63790       -0.72250
H          5.14720       -5.54410        1.09040
H          2.13327       -5.54526       -0.72210
H          2.21983       -5.25237        2.31586
H          1.48712       -6.58618        1.26983
H          1.38870       -2.47550        0.06380
23

C          1.29981        0.35034        0.45843
C          2.48630        0.05630       -0.09090
C          3.16110       -1.27200       -0.02260
C          4.56000       -1.29680       -0.03540
C          5.25150       -2.50280        0.02120
C          4.56460       -3.72400        0.09360
C          5.37110       -4.99730        0.15050
C          3.14310       -3.73130        0.11280
C          2.39890       -5.03230        0.19510
C          1.20190       -5.20920        0.77354
C          2.46120       -2.49290        0.05270
H          0.89582        1.35152        0.34778
H          0.70881       -0.36485        1.01397
H          2.98914        0.85519       -0.63002
H          5.12550       -0.37400       -0.09160
H          6.33440       -2.48020        0.00710
H          6.46370       -4.79770        0.12650
H          5.12540       -5.63790       -0.72250
H          5.14720       -5.54410        1.09040
H          2.84333       -5.92083       -0.23843
H          0.64142       -4.41697        1.24901
H          0.75495       -6.19856        0.77665
H          1.38870       -2.47550        0.06380
23

C          1.29981        0.35034        0.45843
C          2.48630        0.05630       -0.09090
C          3.16110       -1.27200       -0.02260
C          4.56000       -1.29680       -0.03540
C          5.25150       -2.50280        0.02120
C          4.56460       -3.72400        0.09360
C          5.37110       -4.99730        0.15050
C          3.14310       -3.73130        0.11280
C          2.39890       -5.03230        0.19510
C          1.18733       -5.27058       -0.32837
C          2.46120       -2.49290        0.05270
H          0.89582        1.35152        0.34778
H          0.70881       -0.36485        1.01397
H          2.98914        0.85519       -0.63002
H          5.12550       -0.37400       -0.09160
H          6.33440       -2.48020        0.00710
H          6.46370       -4.79770        0.12650
H          5.12540       -5.63790       -0.72250
H          5.14720       -5.54410        1.09040
H          2.85335       -5.86608        0.71782
H          0.61271       -4.53476       -0.87265
H          0.74034       -6.25241       -0.20669
H          1.38870       -2.47550        0.06380
23

C          2.11921        0.68037       -1.21862
C          2.48630        0.05630       -0.09090
C          3.16110       -1.27200       -0.02260
C          4.56000       -1.29680       -0.03540
C          5.25150       -2.50280        0.02120
C          4.56460       -3.72400        0.09360
C          5.37110       -4.99730        0.15050
C          3.14310       -3.73130        0.11280
C          2.39890       -5.03230        0.19510
C          2.82998       -6.20754       -0.28623
C          2.46120       -2.49290        0.05270
H          1.63420        1.64927       -1.15675
H          2.28266        0.26916       -2.20533
H          2.27379        0.56760        0.84459
H          5.12550       -0.37400       -0.09160
H          6.33440       -2.48020        0.00710
H          6.46370       -4.79770        0.12650
H          5.12540       -5.63790       -0.72250
H          5.14720       -5.54410        1.09040
H          1.42774       -5.05323        0.67610
H          3.77548       -6.33888       -0.79281
H          2.20616       -7.08871       -0.17227
H          1.38870       -2.47550        0.06380
23

C          2.14139        0.80400        0.96644
C          2.48630        0.05630       -0.09090
C          3.16110       -1.27200       -0.02260
C          4.56000       -1.29680       -0.03540
C          5.25150       -2.50280        0.02120
C          4.56460       -3.72400        0.09360
C          5.37110       -4.99730        0.15050
C          3.14310       -3.73130        0.11280
C          2.39890       -5.03230        0.19510
C          2.84424       -6.14746        0.79241
C          2.46120       -2.49290        0.05270
H          1.65078        1.75859        0.80562
H          2.32431        0.50603        1.98974
H          2.24906        0.45642       -1.07343
H          5.12550       -0.37400       -0.09160
H          6.33440       -2.48020        0.00710
H          6.46370       -4.79770        0.12650
H          5.12540       -5.63790       -0.72250
H          5.14720       -5.54410        1.09040
H          1.41792       -5.10683       -0.25996
H          3.80358       -6.22358        1.28405
H          2.22046       -7.03600        0.79031
H          1.38870       -2.47550        0.06380
