
 OpenBabel02032211093D

 20 20  0  0  0  0  0  0  0  0999 V2000
    1.1486    0.1233   -0.1659 C   0  0  0  0  0  0  0  0  0  0  0  0
    2.4573   -0.0621    0.0672 C   0  0  0  0  0  0  0  0  0  0  0  0
    3.2058   -1.1818   -0.4247 C   0  0  0  0  0  0  0  0  0  0  0  0
    2.7689   -1.9474   -1.9091 S   0  0  0  0  0  0  0  0  0  0  0  0
    4.0572   -3.0423   -1.8238 C   0  0  0  0  0  0  0  0  0  0  0  0
    4.8541   -2.8639   -0.7117 C   0  0  0  0  0  0  0  0  0  0  0  0
    6.0325   -3.7416   -0.4374 C   0  0  0  0  0  0  0  0  0  0  0  0
    4.3596   -1.7740    0.1070 C   0  0  0  0  0  0  0  0  0  0  0  0
    4.9084   -1.3346    1.3677 C   0  0  0  0  0  0  0  0  0  0  0  0
    6.1919   -1.3440    1.7550 C   0  0  0  0  0  0  0  0  0  0  0  0
    0.6399    0.9959    0.2312 H   0  0  0  0  0  0  0  0  0  0  0  0
    0.5438   -0.5694   -0.7420 H   0  0  0  0  0  0  0  0  0  0  0  0
    2.9815    0.6714    0.6731 H   0  0  0  0  0  0  0  0  0  0  0  0
    4.1735   -3.7843   -2.6019 H   0  0  0  0  0  0  0  0  0  0  0  0
    6.1336   -4.5156   -1.2064 H   0  0  0  0  0  0  0  0  0  0  0  0
    5.9263   -4.2448    0.5281 H   0  0  0  0  0  0  0  0  0  0  0  0
    6.9605   -3.1645   -0.4502 H   0  0  0  0  0  0  0  0  0  0  0  0
    4.1992   -0.9227    2.0837 H   0  0  0  0  0  0  0  0  0  0  0  0
    7.0004   -1.6911    1.1276 H   0  0  0  0  0  0  0  0  0  0  0  0
    6.4662   -0.9711    2.7379 H   0  0  0  0  0  0  0  0  0  0  0  0
  1  2  2  0  0  0  0
  1 11  1  0  0  0  0
  1 12  1  0  0  0  0
  2  3  1  0  0  0  0
  2 13  1  0  0  0  0
  3  4  1  0  0  0  0
  3  8  2  0  0  0  0
  4  5  1  0  0  0  0
  5  6  2  0  0  0  0
  5 14  1  0  0  0  0
  6  7  1  0  0  0  0
  6  8  1  0  0  0  0
  7 15  1  0  0  0  0
  7 16  1  0  0  0  0
  7 17  1  0  0  0  0
  8  9  1  0  0  0  0
  9 10  2  0  0  0  0
  9 18  1  0  0  0  0
 10 19  1  0  0  0  0
 10 20  1  0  0  0  0
M  END
