
 OpenBabel02012214143D

 23 23  0  0  0  0  0  0  0  0999 V2000
    1.3829    0.8841    0.7153 C   0  0  0  0  0  0  0  0  0  0  0  0
    2.3090   -0.2925    0.4608 C   0  0  0  0  0  0  0  0  0  0  0  0
    3.1612   -0.4410    1.6015 O   0  0  0  0  0  0  0  0  0  0  0  0
    4.2797    0.3391    1.5895 C   0  0  0  0  0  0  0  0  0  0  0  0
    4.7313    0.8842    0.5873 O   0  0  0  0  0  0  0  0  0  0  0  0
    4.8211    0.5515    2.9225 C   0  0  0  0  0  0  0  0  0  0  0  0
    4.3302   -0.0159    4.0891 N   0  0  0  0  0  0  0  0  0  0  0  0
    5.0598    0.5237    5.0413 C   0  0  0  0  0  0  0  0  0  0  0  0
    4.9775    0.3326    6.5013 C   0  0  0  0  0  0  0  0  0  0  0  0
    6.0075    1.4064    4.5986 O   0  0  0  0  0  0  0  0  0  0  0  0
    5.8480    1.4176    3.2413 C   0  0  0  0  0  0  0  0  0  0  0  0
    6.7129    2.3183    2.4595 C   0  0  0  0  0  0  0  0  0  0  0  0
    0.6825    1.0246   -0.1111 H   0  0  0  0  0  0  0  0  0  0  0  0
    1.9556    1.8087    0.8528 H   0  0  0  0  0  0  0  0  0  0  0  0
    0.8178    0.7282    1.6406 H   0  0  0  0  0  0  0  0  0  0  0  0
    2.8780   -0.1637   -0.4669 H   0  0  0  0  0  0  0  0  0  0  0  0
    1.7255   -1.2133    0.3584 H   0  0  0  0  0  0  0  0  0  0  0  0
    4.2139   -0.4097    6.7517 H   0  0  0  0  0  0  0  0  0  0  0  0
    4.7176    1.2727    6.9977 H   0  0  0  0  0  0  0  0  0  0  0  0
    5.9373   -0.0155    6.8942 H   0  0  0  0  0  0  0  0  0  0  0  0
    7.3765    2.8970    3.1072 H   0  0  0  0  0  0  0  0  0  0  0  0
    6.1059    3.0233    1.8815 H   0  0  0  0  0  0  0  0  0  0  0  0
    7.3294    1.7434    1.7623 H   0  0  0  0  0  0  0  0  0  0  0  0
  1  2  1  0  0  0  0
  1 13  1  0  0  0  0
  1 14  1  0  0  0  0
  1 15  1  0  0  0  0
  2  3  1  0  0  0  0
  2 16  1  0  0  0  0
  2 17  1  0  0  0  0
  3  4  1  0  0  0  0
  4  5  2  0  0  0  0
  4  6  1  0  0  0  0
  6  7  1  0  0  0  0
  6 11  2  0  0  0  0
  7  8  2  0  0  0  0
  8  9  1  0  0  0  0
  8 10  1  0  0  0  0
  9 18  1  0  0  0  0
  9 19  1  0  0  0  0
  9 20  1  0  0  0  0
 10 11  1  0  0  0  0
 11 12  1  0  0  0  0
 12 21  1  0  0  0  0
 12 22  1  0  0  0  0
 12 23  1  0  0  0  0
M  END
