
  xtb     02012214143D
 xtb: 6.4.1 (23d549d)
 23 23  0     0  0            999 V2000
    5.9583   -0.5286   -0.9436 c   0  0  0  0  0  0  0  0  0  0  0  0
    5.0542    0.6036   -0.4765 c   0  0  0  0  0  0  0  0  0  0  0  0
    5.3046    0.9453    0.8868 o   0  0  0  0  0  0  0  0  0  0  0  0
    4.7038    0.1732    1.8162 c   0  0  0  0  0  0  0  0  0  0  0  0
    3.9702   -0.7415    1.5516 o   0  0  0  0  0  0  0  0  0  0  0  0
    5.0697    0.6162    3.1654 c   0  0  0  0  0  0  0  0  0  0  0  0
    4.5417    0.0350    4.2947 n   0  0  0  0  0  0  0  0  0  0  0  0
    5.0795    0.6520    5.2884 c   0  0  0  0  0  0  0  0  0  0  0  0
    4.8504    0.4001    6.7281 c   0  0  0  0  0  0  0  0  0  0  0  0
    5.9477    1.6226    4.9060 o   0  0  0  0  0  0  0  0  0  0  0  0
    5.9438    1.6033    3.5556 c   0  0  0  0  0  0  0  0  0  0  0  0
    6.7964    2.5607    2.8155 c   0  0  0  0  0  0  0  0  0  0  0  0
    5.7786   -0.7294   -1.9957 h   0  0  0  0  0  0  0  0  0  0  0  0
    5.7463   -1.4284   -0.3717 h   0  0  0  0  0  0  0  0  0  0  0  0
    7.0030   -0.2591   -0.8056 h   0  0  0  0  0  0  0  0  0  0  0  0
    4.0037    0.3136   -0.5826 h   0  0  0  0  0  0  0  0  0  0  0  0
    5.2469    1.5205   -1.0377 h   0  0  0  0  0  0  0  0  0  0  0  0
    4.0182   -0.2879    6.8336 h   0  0  0  0  0  0  0  0  0  0  0  0
    4.6317    1.3339    7.2423 h   0  0  0  0  0  0  0  0  0  0  0  0
    5.7404   -0.0382    7.1783 h   0  0  0  0  0  0  0  0  0  0  0  0
    7.4576    3.0708    3.5114 h   0  0  0  0  0  0  0  0  0  0  0  0
    6.1782    3.2952    2.3014 h   0  0  0  0  0  0  0  0  0  0  0  0
    7.3807    2.0368    2.0628 h   0  0  0  0  0  0  0  0  0  0  0  0
  1  2  1  0  0  0  0
  2  3  1  0  0  0  0
  3  4  1  0  0  0  0
  4  5  2  0  0  0  0
  4  6  1  0  0  0  0
  6  7  4  0  0  0  0
  7  8  2  0  0  0  0
  8  9  1  0  0  0  0
  8 10  1  0  0  0  0
  6 11  2  0  0  0  0
 10 11  1  0  0  0  0
 11 12  1  0  0  0  0
  1 13  1  0  0  0  0
  1 14  1  0  0  0  0
  1 15  1  0  0  0  0
  2 16  1  0  0  0  0
  2 17  1  0  0  0  0
  9 18  1  0  0  0  0
  9 19  1  0  0  0  0
  9 20  1  0  0  0  0
 12 21  1  0  0  0  0
 12 22  1  0  0  0  0
 12 23  1  0  0  0  0
M  END
