
  xtb     02032211353D
 xtb: 6.4.1 (23d549d)
 24 24  0     0  0            999 V2000
   -3.6141    0.3453   -0.2046 C   0  0  0  0  0  0  0  0  0  0  0  0
   -2.5091   -0.1450    0.3403 C   0  0  0  0  0  0  0  0  0  0  0  0
   -1.1660    0.3959    0.1346 C   0  0  0  0  0  0  0  0  0  0  0  0
   -0.9919    1.7755    0.0181 C   0  0  0  0  0  0  0  0  0  0  0  0
    0.2687    2.3184   -0.0982 C   0  0  0  0  0  0  0  0  0  0  0  0
    1.3900    1.5031   -0.0892 C   0  0  0  0  0  0  0  0  0  0  0  0
    1.2418    0.1293    0.0277 C   0  0  0  0  0  0  0  0  0  0  0  0
    2.2832   -0.7545    0.0341 O   0  0  0  0  0  0  0  0  0  0  0  0
    3.5931   -0.2549   -0.0589 C   0  0  0  0  0  0  0  0  0  0  0  0
   -0.0429   -0.4420    0.1278 C   0  0  0  0  0  0  0  0  0  0  0  0
   -0.1327   -1.8979    0.2101 C   0  0  0  0  0  0  0  0  0  0  0  0
   -1.0591   -2.6469   -0.3728 C   0  0  0  0  0  0  0  0  0  0  0  0
   -4.5825   -0.0771    0.0032 H   0  0  0  0  0  0  0  0  0  0  0  0
   -3.5937    1.1713   -0.8961 H   0  0  0  0  0  0  0  0  0  0  0  0
   -2.5686   -1.0035    0.9973 H   0  0  0  0  0  0  0  0  0  0  0  0
   -1.8568    2.4200    0.0464 H   0  0  0  0  0  0  0  0  0  0  0  0
    0.3931    3.3876   -0.1870 H   0  0  0  0  0  0  0  0  0  0  0  0
    2.3673    1.9514   -0.1728 H   0  0  0  0  0  0  0  0  0  0  0  0
    4.2430   -1.1283   -0.0246 H   0  0  0  0  0  0  0  0  0  0  0  0
    3.8347    0.4074    0.7792 H   0  0  0  0  0  0  0  0  0  0  0  0
    3.7559    0.2774   -1.0018 H   0  0  0  0  0  0  0  0  0  0  0  0
    0.6727   -2.3679    0.7597 H   0  0  0  0  0  0  0  0  0  0  0  0
   -1.8385   -2.2222   -0.9831 H   0  0  0  0  0  0  0  0  0  0  0  0
   -1.0555   -3.7198   -0.2777 H   0  0  0  0  0  0  0  0  0  0  0  0
  1  2  2  0  0  0  0
  2  3  1  0  0  0  0
  3  4  4  0  0  0  0
  4  5  4  0  0  0  0
  5  6  4  0  0  0  0
  6  7  4  0  0  0  0
  7  8  1  0  0  0  0
  8  9  1  0  0  0  0
  3 10  4  0  0  0  0
  7 10  4  0  0  0  0
 10 11  1  0  0  0  0
 11 12  2  0  0  0  0
  1 13  1  0  0  0  0
  1 14  1  0  0  0  0
  2 15  1  0  0  0  0
  4 16  1  0  0  0  0
  5 17  1  0  0  0  0
  6 18  1  0  0  0  0
  9 19  1  0  0  0  0
  9 20  1  0  0  0  0
  9 21  1  0  0  0  0
 11 22  1  0  0  0  0
 12 23  1  0  0  0  0
 12 24  1  0  0  0  0
M  END
