
  xtb     02032211353D
 xtb: 6.4.1 (23d549d)
 26 26  0     0  0            999 V2000
    3.6466   -0.3535    0.2044 C   0  0  0  0  0  0  0  0  0  0  0  0
    2.4743   -0.7464   -0.2755 C   0  0  0  0  0  0  0  0  0  0  0  0
    1.2185   -0.0074   -0.1756 C   0  0  0  0  0  0  0  0  0  0  0  0
    1.1872    1.3721   -0.0072 C   0  0  0  0  0  0  0  0  0  0  0  0
   -0.0185    2.0628    0.0753 C   0  0  0  0  0  0  0  0  0  0  0  0
   -0.0313    3.4422    0.1575 N   0  0  0  0  0  0  0  0  0  0  0  0
   -1.2112    1.3499   -0.0087 C   0  0  0  0  0  0  0  0  0  0  0  0
   -1.2165   -0.0298   -0.1774 C   0  0  0  0  0  0  0  0  0  0  0  0
   -2.4586   -0.7915   -0.2800 C   0  0  0  0  0  0  0  0  0  0  0  0
   -3.6365   -0.4233    0.2054 C   0  0  0  0  0  0  0  0  0  0  0  0
    0.0074   -0.7057   -0.2714 C   0  0  0  0  0  0  0  0  0  0  0  0
    0.0203   -2.0837   -0.4492 O   0  0  0  0  0  0  0  0  0  0  0  0
    0.0173   -2.8093    0.7594 C   0  0  0  0  0  0  0  0  0  0  0  0
    4.5306   -0.9579    0.0931 H   0  0  0  0  0  0  0  0  0  0  0  0
    3.7731    0.5760    0.7342 H   0  0  0  0  0  0  0  0  0  0  0  0
    2.3906   -1.7044   -0.7722 H   0  0  0  0  0  0  0  0  0  0  0  0
    2.1137    1.9250    0.0331 H   0  0  0  0  0  0  0  0  0  0  0  0
    0.8115    3.8764    0.4965 H   0  0  0  0  0  0  0  0  0  0  0  0
   -0.8825    3.8607    0.4954 H   0  0  0  0  0  0  0  0  0  0  0  0
   -2.1479    1.8854    0.0303 H   0  0  0  0  0  0  0  0  0  0  0  0
   -2.3583   -1.7443   -0.7837 H   0  0  0  0  0  0  0  0  0  0  0  0
   -3.7781    0.4999    0.7423 H   0  0  0  0  0  0  0  0  0  0  0  0
   -4.5099   -1.0428    0.0920 H   0  0  0  0  0  0  0  0  0  0  0  0
    0.9033   -2.5800    1.3634 H   0  0  0  0  0  0  0  0  0  0  0  0
    0.0271   -3.8632    0.4853 H   0  0  0  0  0  0  0  0  0  0  0  0
   -0.8803   -2.5934    1.3512 H   0  0  0  0  0  0  0  0  0  0  0  0
  1  2  2  0  0  0  0
  2  3  1  0  0  0  0
  3  4  4  0  0  0  0
  4  5  4  0  0  0  0
  5  6  1  0  0  0  0
  5  7  4  0  0  0  0
  7  8  4  0  0  0  0
  8  9  1  0  0  0  0
  9 10  2  0  0  0  0
  3 11  4  0  0  0  0
  8 11  4  0  0  0  0
 11 12  1  0  0  0  0
 12 13  1  0  0  0  0
  1 14  1  0  0  0  0
  1 15  1  0  0  0  0
  2 16  1  0  0  0  0
  4 17  1  0  0  0  0
  6 18  1  0  0  0  0
  6 19  1  0  0  0  0
  7 20  1  0  0  0  0
  9 21  1  0  0  0  0
 10 22  1  0  0  0  0
 10 23  1  0  0  0  0
 13 24  1  0  0  0  0
 13 25  1  0  0  0  0
 13 26  1  0  0  0  0
M  END
