
  xtb     02032211353D
 xtb: 6.4.1 (23d549d)
 25 25  0     0  0            999 V2000
    2.3517   -3.2503    0.2000 C   0  0  0  0  0  0  0  0  0  0  0  0
    1.0981   -2.8380    0.0492 C   0  0  0  0  0  0  0  0  0  0  0  0
    0.6001   -1.4698   -0.0051 C   0  0  0  0  0  0  0  0  0  0  0  0
   -0.7734   -1.2602    0.0258 C   0  0  0  0  0  0  0  0  0  0  0  0
   -1.3561    0.0052    0.0047 C   0  0  0  0  0  0  0  0  0  0  0  0
   -2.8240    0.1732    0.0343 C   0  0  0  0  0  0  0  0  0  0  0  0
   -3.3834    1.2075    0.3256 O   0  0  0  0  0  0  0  0  0  0  0  0
   -3.5728   -0.8915   -0.2984 O   0  0  0  0  0  0  0  0  0  0  0  0
   -0.5184    1.1484   -0.0172 C   0  0  0  0  0  0  0  0  0  0  0  0
   -1.0374    2.3898    0.0203 N   0  0  0  0  0  0  0  0  0  0  0  0
    0.8845    0.9653   -0.1074 C   0  0  0  0  0  0  0  0  0  0  0  0
    1.7600    2.1363   -0.2420 C   0  0  0  0  0  0  0  0  0  0  0  0
    2.9129    2.3048    0.3879 C   0  0  0  0  0  0  0  0  0  0  0  0
    1.3981   -0.3194   -0.0984 C   0  0  0  0  0  0  0  0  0  0  0  0
    2.7322   -0.4580   -0.2230 F   0  0  0  0  0  0  0  0  0  0  0  0
    2.5796   -4.3024    0.2320 H   0  0  0  0  0  0  0  0  0  0  0  0
    3.1884   -2.5838    0.2975 H   0  0  0  0  0  0  0  0  0  0  0  0
    0.3150   -3.5840   -0.0276 H   0  0  0  0  0  0  0  0  0  0  0  0
   -1.3954   -2.1419    0.1177 H   0  0  0  0  0  0  0  0  0  0  0  0
   -3.0421   -1.6451   -0.5872 H   0  0  0  0  0  0  0  0  0  0  0  0
   -2.0324    2.4733    0.1832 H   0  0  0  0  0  0  0  0  0  0  0  0
   -0.4341    3.1841    0.1256 H   0  0  0  0  0  0  0  0  0  0  0  0
    1.4056    2.8971   -0.9284 H   0  0  0  0  0  0  0  0  0  0  0  0
    3.2963    1.5811    1.0861 H   0  0  0  0  0  0  0  0  0  0  0  0
    3.5173    3.1810    0.2269 H   0  0  0  0  0  0  0  0  0  0  0  0
  1  2  2  0  0  0  0
  2  3  1  0  0  0  0
  3  4  4  0  0  0  0
  4  5  4  0  0  0  0
  5  6  1  0  0  0  0
  6  7  2  0  0  0  0
  6  8  1  0  0  0  0
  5  9  4  0  0  0  0
  9 10  4  0  0  0  0
  9 11  4  0  0  0  0
 11 12  1  0  0  0  0
 12 13  2  0  0  0  0
  3 14  4  0  0  0  0
 11 14  4  0  0  0  0
 14 15  1  0  0  0  0
  1 16  1  0  0  0  0
  1 17  1  0  0  0  0
  2 18  1  0  0  0  0
  4 19  1  0  0  0  0
  8 20  1  0  0  0  0
 10 21  1  0  0  0  0
 10 22  1  0  0  0  0
 12 23  1  0  0  0  0
 13 24  1  0  0  0  0
 13 25  1  0  0  0  0
M  END
