20

C         -2.44370        1.17860       -0.07680
C         -1.16170        0.40630       -0.03360
C          0.07180        1.05300        0.03340
C          1.26810        0.31130        0.07670
C          2.54390        1.10580        0.14590
C          1.20570       -1.12010        0.05030
C          2.37690       -2.08200        0.08610
O          2.21370       -3.17645        0.60484
O          3.61092       -1.83496       -0.40947
C         -0.08200       -1.70450       -0.02170
N         -1.20450       -0.94560       -0.05950
H         -2.26370        2.27440       -0.04910
H         -3.07140        0.90170        0.79580
H         -2.99210        0.93390       -1.01060
H          0.09720        2.13640        0.05210
H          2.35800        2.20110        0.13810
H          3.17380        0.88660       -0.74160
H          3.07380        0.88780        1.09570
H          3.92465       -1.03371       -0.82802
H         -0.20640       -2.77900       -0.04650
20

C         -2.44370        1.17860       -0.07680
C         -1.16170        0.40630       -0.03360
C          0.07180        1.05300        0.03340
C          1.26810        0.31130        0.07670
C          2.54390        1.10580        0.14590
C          1.20570       -1.12010        0.05030
C          2.37690       -2.08200        0.08610
O          2.26162       -3.15851       -0.48079
O          3.55953       -1.85615        0.70239
C         -0.08200       -1.70450       -0.02170
N         -1.20450       -0.94560       -0.05950
H         -2.26370        2.27440       -0.04910
H         -3.07140        0.90170        0.79580
H         -2.99210        0.93390       -1.01060
H          0.09720        2.13640        0.05210
H          2.35800        2.20110        0.13810
H          3.17380        0.88660       -0.74160
H          3.07380        0.88780        1.09570
H          3.81928       -1.08624        1.20774
H         -0.20640       -2.77900       -0.04650
20

C         -2.44370        1.17860       -0.07680
C         -1.16170        0.40630       -0.03360
C          0.07180        1.05300        0.03340
C          1.26810        0.31130        0.07670
C          2.54390        1.10580        0.14590
C          1.20570       -1.12010        0.05030
C          2.37690       -2.08200        0.08610
O          2.14493       -3.28110        0.04279
O          3.68015       -1.72922        0.16665
C         -0.08200       -1.70450       -0.02170
N         -1.20450       -0.94560       -0.05950
H         -2.26370        2.27440       -0.04910
H         -3.07140        0.90170        0.79580
H         -2.99210        0.93390       -1.01060
H          0.09720        2.13640        0.05210
H          2.35800        2.20110        0.13810
H          3.17380        0.88660       -0.74160
H          3.07380        0.88780        1.09570
H          4.04561       -0.84709        0.22924
H         -0.20640       -2.77900       -0.04650
20

C         -2.44370        1.17860       -0.07680
C         -1.16170        0.40630       -0.03360
C          0.07180        1.05300        0.03340
C          1.26810        0.31130        0.07670
C          2.54390        1.10580        0.14590
C          1.20570       -1.12010        0.05030
C          2.37690       -2.08200        0.08610
O          3.39398       -1.73696        0.66922
O          2.40221       -3.30936       -0.48168
C         -0.08200       -1.70450       -0.02170
N         -1.20450       -0.94560       -0.05950
H         -2.26370        2.27440       -0.04910
H         -3.07140        0.90170        0.79580
H         -2.99210        0.93390       -1.01060
H          0.09720        2.13640        0.05210
H          2.35800        2.20110        0.13810
H          3.17380        0.88660       -0.74160
H          3.07380        0.88780        1.09570
H          1.71202       -3.73384       -0.99066
H         -0.20640       -2.77900       -0.04650
20

C         -2.44370        1.17860       -0.07680
C         -1.16170        0.40630       -0.03360
C          0.07180        1.05300        0.03340
C          1.26810        0.31130        0.07670
C          2.54390        1.10580        0.14590
C          1.20570       -1.12010        0.05030
C          2.37690       -2.08200        0.08610
O          3.44088       -1.71940       -0.39349
O          2.35191       -3.33010        0.60671
C         -0.08200       -1.70450       -0.02170
N         -1.20450       -0.94560       -0.05950
H         -2.26370        2.27440       -0.04910
H         -3.07140        0.90170        0.79580
H         -2.99210        0.93390       -1.01060
H          0.09720        2.13640        0.05210
H          2.35800        2.20110        0.13810
H          3.17380        0.88660       -0.74160
H          3.07380        0.88780        1.09570
H          1.60887       -3.78527        1.00211
H         -0.20640       -2.77900       -0.04650
20

C         -2.44370        1.17860       -0.07680
C         -1.16170        0.40630       -0.03360
C          0.07180        1.05300        0.03340
C          1.26810        0.31130        0.07670
C          2.54390        1.10580        0.14590
C          1.20570       -1.12010        0.05030
C          2.37690       -2.08200        0.08610
O          3.50660       -1.61939        0.14360
O          2.28574       -3.43115        0.05617
C         -0.08200       -1.70450       -0.02170
N         -1.20450       -0.94560       -0.05950
H         -2.26370        2.27440       -0.04910
H         -3.07140        0.90170        0.79580
H         -2.99210        0.93390       -1.01060
H          0.09720        2.13640        0.05210
H          2.35800        2.20110        0.13810
H          3.17380        0.88660       -0.74160
H          3.07380        0.88780        1.09570
H          1.49329       -3.96360       -0.00819
H         -0.20640       -2.77900       -0.04650
