  23

 C          1.9705800000        0.7000200000       -1.1791900000
 C          2.3238000000        0.0409000000       -0.0675000000
 C          3.0932000000       -1.2230000000       -0.0334000000
 C          2.3954000000       -2.4413000000       -0.0563000000
 C          3.0720000000       -3.6551000000       -0.0404000000
 C          4.4626000000       -3.6707000000       -0.0174000000
 C          5.2084000000       -2.4797000000       -0.0334000000
 C          6.6816000000       -2.5699000000        0.0286000000
 C          7.5165100000       -1.6761700000        0.5696300000
 F          7.0667300000       -0.5405600000        1.1431000000
 F          8.8457700000       -1.9138300000        0.5283700000
 C          4.5185000000       -1.2358000000       -0.0361000000
 C          5.2588000000        0.0848000000       -0.0420000000
 H          1.4063000000        1.6254600000       -1.1115900000
 H          2.2191600000        0.3501900000       -2.1758000000
 H          2.0226100000        0.4556600000        0.8905100000
 H          1.3091000000       -2.4598000000       -0.0928000000
 H          2.5161000000       -4.5883000000       -0.0449000000
 H          4.9572000000       -4.6401000000        0.0156000000
 H          7.1329200000       -3.4506000000       -0.4220200000
 H          6.3457000000       -0.0150000000       -0.0526000000
 H          4.9990000000        0.6637000000        0.8507000000
 H          5.0015000000        0.6578000000       -0.9390000000
