 xtb: 6.5.0 (unknown)
          08112218553D

 29  0  0     0  0            999 V2000
    0.4678    4.5696    0.0515 C   0  0  0  0  0  0  0  0  0  0  0  0
   -0.5484    3.7202    0.1363 C   0  0  0  0  0  0  0  0  0  0  0  0
   -0.4735    2.2646    0.0590 C   0  0  0  0  0  0  0  0  0  0  0  0
   -1.6557    1.5281    0.1060 C   0  0  0  0  0  0  0  0  0  0  0  0
   -1.6647    0.1348    0.0356 C   0  0  0  0  0  0  0  0  0  0  0  0
   -2.9521   -0.5416    0.0922 C   0  0  0  0  0  0  0  0  0  0  0  0
   -3.2010   -1.8422    0.0460 C   0  0  0  0  0  0  0  0  0  0  0  0
   -2.3368   -2.8389   -0.0624 F   0  0  0  0  0  0  0  0  0  0  0  0
   -4.4332   -2.3431    0.1075 F   0  0  0  0  0  0  0  0  0  0  0  0
   -0.4486   -0.5339   -0.0837 C   0  0  0  0  0  0  0  0  0  0  0  0
    0.7397    0.1876   -0.1297 C   0  0  0  0  0  0  0  0  0  0  0  0
    2.0097   -0.5765   -0.2546 C   0  0  0  0  0  0  0  0  0  0  0  0
    2.0690   -1.7794   -0.3178 O   0  0  0  0  0  0  0  0  0  0  0  0
    3.0828    0.2242   -0.3004 O   0  0  0  0  0  0  0  0  0  0  0  0
    4.3561   -0.4128   -0.4039 C   0  0  0  0  0  0  0  0  0  0  0  0
    4.8612   -0.8736    0.9559 C   0  0  0  0  0  0  0  0  0  0  0  0
    0.7318    1.5744   -0.0587 C   0  0  0  0  0  0  0  0  0  0  0  0
    0.3131    5.6326    0.1185 H   0  0  0  0  0  0  0  0  0  0  0  0
    1.4860    4.2503   -0.0889 H   0  0  0  0  0  0  0  0  0  0  0  0
   -1.5493    4.1115    0.2720 H   0  0  0  0  0  0  0  0  0  0  0  0
   -2.5958    2.0540    0.1988 H   0  0  0  0  0  0  0  0  0  0  0  0
   -3.8249    0.0889    0.1838 H   0  0  0  0  0  0  0  0  0  0  0  0
   -0.3911   -1.6086   -0.1425 H   0  0  0  0  0  0  0  0  0  0  0  0
    5.0161    0.3430   -0.8351 H   0  0  0  0  0  0  0  0  0  0  0  0
    4.2708   -1.2669   -1.0838 H   0  0  0  0  0  0  0  0  0  0  0  0
    4.9007   -0.0354    1.6476 H   0  0  0  0  0  0  0  0  0  0  0  0
    5.8566   -1.2955    0.8504 H   0  0  0  0  0  0  0  0  0  0  0  0
    4.1971   -1.6342    1.3589 H   0  0  0  0  0  0  0  0  0  0  0  0
    1.6690    2.1040   -0.0936 H   0  0  0  0  0  0  0  0  0  0  0  0
M  END
