
  xtb     02032211353D
 xtb: 6.4.1 (23d549d)
 23 24  0     0  0            999 V2000
    3.7674    0.2119    0.1289 C   0  0  0  0  0  0  0  0  0  0  0  0
    2.7568    0.9895   -0.2500 C   0  0  0  0  0  0  0  0  0  0  0  0
    1.3586    0.6482   -0.1726 C   0  0  0  0  0  0  0  0  0  0  0  0
    0.2055    1.9662   -0.0894 S   0  0  0  0  0  0  0  0  0  0  0  0
   -1.1187    0.8467    0.0135 C   0  0  0  0  0  0  0  0  0  0  0  0
   -2.4639    1.1696    0.1064 C   0  0  0  0  0  0  0  0  0  0  0  0
   -3.3832    0.1425    0.1453 C   0  0  0  0  0  0  0  0  0  0  0  0
   -2.9655   -1.1863    0.0754 C   0  0  0  0  0  0  0  0  0  0  0  0
   -1.6295   -1.5063   -0.0143 C   0  0  0  0  0  0  0  0  0  0  0  0
   -0.6729   -0.4881   -0.0262 C   0  0  0  0  0  0  0  0  0  0  0  0
    0.7562   -0.5835   -0.1251 C   0  0  0  0  0  0  0  0  0  0  0  0
    1.4814   -1.8418   -0.2363 C   0  0  0  0  0  0  0  0  0  0  0  0
    1.2525   -2.9147    0.5086 C   0  0  0  0  0  0  0  0  0  0  0  0
    4.7875    0.5410    0.0312 H   0  0  0  0  0  0  0  0  0  0  0  0
    3.6118   -0.7586    0.5665 H   0  0  0  0  0  0  0  0  0  0  0  0
    2.9580    1.9849   -0.6265 H   0  0  0  0  0  0  0  0  0  0  0  0
   -2.7746    2.2024    0.1405 H   0  0  0  0  0  0  0  0  0  0  0  0
   -4.4362    0.3690    0.2182 H   0  0  0  0  0  0  0  0  0  0  0  0
   -3.7042   -1.9740    0.0875 H   0  0  0  0  0  0  0  0  0  0  0  0
   -1.3144   -2.5356   -0.0883 H   0  0  0  0  0  0  0  0  0  0  0  0
    2.2603   -1.8582   -0.9902 H   0  0  0  0  0  0  0  0  0  0  0  0
    0.5234   -2.9143    1.3014 H   0  0  0  0  0  0  0  0  0  0  0  0
    1.8103   -3.8255    0.3703 H   0  0  0  0  0  0  0  0  0  0  0  0
  1  2  2  0  0  0  0
  2  3  1  0  0  0  0
  3  4  1  0  0  0  0
  4  5  1  0  0  0  0
  5  6  4  0  0  0  0
  6  7  4  0  0  0  0
  7  8  4  0  0  0  0
  8  9  4  0  0  0  0
  5 10  4  0  0  0  0
  9 10  4  0  0  0  0
  3 11  2  0  0  0  0
 10 11  1  0  0  0  0
 11 12  1  0  0  0  0
 12 13  2  0  0  0  0
  1 14  1  0  0  0  0
  1 15  1  0  0  0  0
  2 16  1  0  0  0  0
  6 17  1  0  0  0  0
  7 18  1  0  0  0  0
  8 19  1  0  0  0  0
  9 20  1  0  0  0  0
 12 21  1  0  0  0  0
 13 22  1  0  0  0  0
 13 23  1  0  0  0  0
M  END
