
  xtb     02032211353D
 xtb: 6.4.1 (23d549d)
 23 23  0     0  0            999 V2000
    3.9980    0.7151    0.0795 C   0  0  0  0  0  0  0  0  0  0  0  0
    3.2004   -0.3452    0.0581 C   0  0  0  0  0  0  0  0  0  0  0  0
    1.7439   -0.3346   -0.0068 C   0  0  0  0  0  0  0  0  0  0  0  0
    0.9746    0.8208   -0.0235 C   0  0  0  0  0  0  0  0  0  0  0  0
   -0.4184    0.7467   -0.0807 C   0  0  0  0  0  0  0  0  0  0  0  0
   -1.0264    1.9593   -0.0274 O   0  0  0  0  0  0  0  0  0  0  0  0
   -2.4204    2.0928    0.1227 C   0  0  0  0  0  0  0  0  0  0  0  0
   -1.0137   -0.5231   -0.1490 C   0  0  0  0  0  0  0  0  0  0  0  0
   -2.4448   -0.8099   -0.2942 C   0  0  0  0  0  0  0  0  0  0  0  0
   -3.0785   -1.7381    0.4088 C   0  0  0  0  0  0  0  0  0  0  0  0
   -0.1347   -1.6130   -0.1129 C   0  0  0  0  0  0  0  0  0  0  0  0
    1.1715   -1.5431   -0.0414 N   0  0  0  0  0  0  0  0  0  0  0  0
    5.0682    0.6084    0.1264 H   0  0  0  0  0  0  0  0  0  0  0  0
    3.6257    1.7250    0.0505 H   0  0  0  0  0  0  0  0  0  0  0  0
    3.6156   -1.3435    0.0858 H   0  0  0  0  0  0  0  0  0  0  0  0
    1.4209    1.8000    0.0237 H   0  0  0  0  0  0  0  0  0  0  0  0
   -2.5759    3.0977    0.5170 H   0  0  0  0  0  0  0  0  0  0  0  0
   -2.8272    1.3607    0.8237 H   0  0  0  0  0  0  0  0  0  0  0  0
   -2.9347    2.0101   -0.8389 H   0  0  0  0  0  0  0  0  0  0  0  0
   -2.9750   -0.2640   -1.0632 H   0  0  0  0  0  0  0  0  0  0  0  0
   -2.5843   -2.2960    1.1866 H   0  0  0  0  0  0  0  0  0  0  0  0
   -4.1192   -1.9594    0.2448 H   0  0  0  0  0  0  0  0  0  0  0  0
   -0.5446   -2.6136   -0.1695 H   0  0  0  0  0  0  0  0  0  0  0  0
  1  2  2  0  0  0  0
  2  3  1  0  0  0  0
  3  4  4  0  0  0  0
  4  5  4  0  0  0  0
  5  6  1  0  0  0  0
  6  7  1  0  0  0  0
  5  8  4  0  0  0  0
  8  9  1  0  0  0  0
  9 10  2  0  0  0  0
  8 11  4  0  0  0  0
  3 12  4  0  0  0  0
 11 12  4  0  0  0  0
  1 13  1  0  0  0  0
  1 14  1  0  0  0  0
  2 15  1  0  0  0  0
  4 16  1  0  0  0  0
  7 17  1  0  0  0  0
  7 18  1  0  0  0  0
  7 19  1  0  0  0  0
  9 20  1  0  0  0  0
 10 21  1  0  0  0  0
 10 22  1  0  0  0  0
 11 23  1  0  0  0  0
M  END
