
  xtb     02032211343D
 xtb: 6.4.1 (23d549d)
 20 20  0     0  0            999 V2000
   -4.3985   -1.8399    0.0233 C   0  0  0  0  0  0  0  0  0  0  0  0
   -3.1213   -1.8827   -0.3355 C   0  0  0  0  0  0  0  0  0  0  0  0
   -2.1375   -0.8171   -0.1785 C   0  0  0  0  0  0  0  0  0  0  0  0
   -2.4717    0.4688    0.2525 C   0  0  0  0  0  0  0  0  0  0  0  0
   -1.5038    1.4449    0.3706 C   0  0  0  0  0  0  0  0  0  0  0  0
   -0.1861    1.1426    0.0783 C   0  0  0  0  0  0  0  0  0  0  0  0
    0.7275    2.1282    0.1529 F   0  0  0  0  0  0  0  0  0  0  0  0
    0.1981   -0.1318   -0.3371 C   0  0  0  0  0  0  0  0  0  0  0  0
    1.5804   -0.4860   -0.6502 C   0  0  0  0  0  0  0  0  0  0  0  0
    2.6572   -0.0648   -0.0062 C   0  0  0  0  0  0  0  0  0  0  0  0
    2.7049    0.7086    1.0637 F   0  0  0  0  0  0  0  0  0  0  0  0
    3.8920   -0.4326   -0.3385 F   0  0  0  0  0  0  0  0  0  0  0  0
   -0.8039   -1.0877   -0.4768 C   0  0  0  0  0  0  0  0  0  0  0  0
   -5.0491   -2.6833   -0.1303 H   0  0  0  0  0  0  0  0  0  0  0  0
   -4.8477   -0.9780    0.4857 H   0  0  0  0  0  0  0  0  0  0  0  0
   -2.7327   -2.7890   -0.7833 H   0  0  0  0  0  0  0  0  0  0  0  0
   -3.4959    0.7147    0.4809 H   0  0  0  0  0  0  0  0  0  0  0  0
   -1.7530    2.4472    0.6819 H   0  0  0  0  0  0  0  0  0  0  0  0
    1.7420   -1.1785   -1.4624 H   0  0  0  0  0  0  0  0  0  0  0  0
   -0.5271   -2.0770   -0.8119 H   0  0  0  0  0  0  0  0  0  0  0  0
  1  2  2  0  0  0  0
  2  3  1  0  0  0  0
  3  4  4  0  0  0  0
  4  5  4  0  0  0  0
  5  6  4  0  0  0  0
  6  7  1  0  0  0  0
  6  8  4  0  0  0  0
  8  9  1  0  0  0  0
  9 10  2  0  0  0  0
 10 11  1  0  0  0  0
 10 12  1  0  0  0  0
  3 13  4  0  0  0  0
  8 13  4  0  0  0  0
  1 14  1  0  0  0  0
  1 15  1  0  0  0  0
  2 16  1  0  0  0  0
  4 17  1  0  0  0  0
  5 18  1  0  0  0  0
  9 19  1  0  0  0  0
 13 20  1  0  0  0  0
M  END
