
  xtb     02032211353D
 xtb: 6.4.1 (23d549d)
 18 18  0     0  0            999 V2000
    3.6740    0.6306   -0.0065 C   0  0  0  0  0  0  0  0  0  0  0  0
    2.8102   -0.3782    0.0023 C   0  0  0  0  0  0  0  0  0  0  0  0
    1.3629   -0.2634    0.0020 C   0  0  0  0  0  0  0  0  0  0  0  0
    0.5549   -1.4065    0.0035 C   0  0  0  0  0  0  0  0  0  0  0  0
   -0.7597   -1.3599    0.0031 N   0  0  0  0  0  0  0  0  0  0  0  0
   -1.3338   -0.1558    0.0009 C   0  0  0  0  0  0  0  0  0  0  0  0
   -2.7882   -0.1242    0.0002 C   0  0  0  0  0  0  0  0  0  0  0  0
   -3.4909    1.0023   -0.0051 C   0  0  0  0  0  0  0  0  0  0  0  0
   -0.6625    0.9977   -0.0002 N   0  0  0  0  0  0  0  0  0  0  0  0
    0.6503    0.9427    0.0006 C   0  0  0  0  0  0  0  0  0  0  0  0
    4.7360    0.4560   -0.0055 H   0  0  0  0  0  0  0  0  0  0  0  0
    3.3637    1.6613   -0.0152 H   0  0  0  0  0  0  0  0  0  0  0  0
    3.1786   -1.3974    0.0100 H   0  0  0  0  0  0  0  0  0  0  0  0
    0.9931   -2.3985    0.0049 H   0  0  0  0  0  0  0  0  0  0  0  0
   -3.2567   -1.0977    0.0039 H   0  0  0  0  0  0  0  0  0  0  0  0
   -2.9927    1.9568   -0.0090 H   0  0  0  0  0  0  0  0  0  0  0  0
   -4.5673    1.0020   -0.0054 H   0  0  0  0  0  0  0  0  0  0  0  0
    1.1546    1.9009    0.0001 H   0  0  0  0  0  0  0  0  0  0  0  0
  1  2  2  0  0  0  0
  2  3  1  0  0  0  0
  3  4  4  0  0  0  0
  4  5  4  0  0  0  0
  5  6  4  0  0  0  0
  6  7  1  0  0  0  0
  7  8  2  0  0  0  0
  6  9  4  0  0  0  0
  3 10  4  0  0  0  0
  9 10  4  0  0  0  0
  1 11  1  0  0  0  0
  1 12  1  0  0  0  0
  2 13  1  0  0  0  0
  4 14  1  0  0  0  0
  7 15  1  0  0  0  0
  8 16  1  0  0  0  0
  8 17  1  0  0  0  0
 10 18  1  0  0  0  0
M  END
