
 OpenBabel02032211213D

 26 26  0  0  0  0  0  0  0  0999 V2000
    1.4636   -0.2706   -1.3774 C   0  0  0  0  0  0  0  0  0  0  0  0
    2.3067   -0.0075   -0.3646 C   0  0  0  0  0  0  0  0  0  0  0  0
    3.2142   -1.0082    0.3043 C   0  0  0  0  0  0  0  0  0  0  0  0
    3.0412   -2.3770   -0.0064 C   0  0  0  0  0  0  0  0  0  0  0  0
    3.8315   -3.3706    0.5636 C   0  0  0  0  0  0  0  0  0  0  0  0
    3.6140   -4.7320    0.2291 N   0  0  0  0  0  0  0  0  0  0  0  0
    4.8327   -3.0270    1.4613 C   0  0  0  0  0  0  0  0  0  0  0  0
    5.0590   -1.6866    1.8139 C   0  0  0  0  0  0  0  0  0  0  0  0
    6.1501   -1.3184    2.7806 C   0  0  0  0  0  0  0  0  0  0  0  0
    7.0055   -2.1773    3.3558 C   0  0  0  0  0  0  0  0  0  0  0  0
    4.2505   -0.6593    1.2504 C   0  0  0  0  0  0  0  0  0  0  0  0
    4.5647    0.6058    1.6670 O   0  0  0  0  0  0  0  0  0  0  0  0
    4.0367    1.8453    1.3963 C   0  0  0  0  0  0  0  0  0  0  0  0
    0.8573    0.5323   -1.7873 H   0  0  0  0  0  0  0  0  0  0  0  0
    1.3475   -1.2399   -1.8399 H   0  0  0  0  0  0  0  0  0  0  0  0
    2.2829    1.0180   -0.0676 H   0  0  0  0  0  0  0  0  0  0  0  0
    2.2791   -2.7108   -0.6898 H   0  0  0  0  0  0  0  0  0  0  0  0
    2.8704   -5.0015   -0.4322 H   0  0  0  0  0  0  0  0  0  0  0  0
    4.1900   -5.4772    0.6478 H   0  0  0  0  0  0  0  0  0  0  0  0
    5.4236   -3.8278    1.8759 H   0  0  0  0  0  0  0  0  0  0  0  0
    6.2839   -0.2751    3.0486 H   0  0  0  0  0  0  0  0  0  0  0  0
    6.9957   -3.2429    3.1778 H   0  0  0  0  0  0  0  0  0  0  0  0
    7.7603   -1.7983    4.0375 H   0  0  0  0  0  0  0  0  0  0  0  0
    4.6221    2.6041    1.9546 H   0  0  0  0  0  0  0  0  0  0  0  0
    2.9917    1.9081    1.7654 H   0  0  0  0  0  0  0  0  0  0  0  0
    4.1378    2.0840    0.3172 H   0  0  0  0  0  0  0  0  0  0  0  0
  1  2  2  0  0  0  0
  1 14  1  0  0  0  0
  1 15  1  0  0  0  0
  2  3  1  0  0  0  0
  2 16  1  0  0  0  0
  3  4  1  0  0  0  0
  3 11  2  0  0  0  0
  4  5  2  0  0  0  0
  4 17  1  0  0  0  0
  5  6  1  0  0  0  0
  5  7  1  0  0  0  0
  6 18  1  0  0  0  0
  6 19  1  0  0  0  0
  7  8  2  0  0  0  0
  7 20  1  0  0  0  0
  8  9  1  0  0  0  0
  8 11  1  0  0  0  0
  9 10  2  0  0  0  0
  9 21  1  0  0  0  0
 10 22  1  0  0  0  0
 10 23  1  0  0  0  0
 11 12  1  0  0  0  0
 12 13  1  0  0  0  0
 13 24  1  0  0  0  0
 13 25  1  0  0  0  0
 13 26  1  0  0  0  0
M  END
