
  xtb     02032211353D
 xtb: 6.4.1 (23d549d)
 56 56  0     0  0            999 V2000
    0.4699   -2.1621   -2.6790 C   0  0  0  0  0  0  0  0  0  0  0  0
    0.2885   -0.8537   -2.6200 C   0  0  0  0  0  0  0  0  0  0  0  0
   -0.0436   -0.1103   -1.3919 C   0  0  0  0  0  0  0  0  0  0  0  0
   -1.2789    0.5212   -1.3302 C   0  0  0  0  0  0  0  0  0  0  0  0
   -1.7100    1.2253   -0.2142 C   0  0  0  0  0  0  0  0  0  0  0  0
   -3.1282    1.7273   -0.1881 C   0  0  0  0  0  0  0  0  0  0  0  0
   -4.1092    0.5470   -0.2033 C   0  0  0  0  0  0  0  0  0  0  0  0
   -3.9435   -0.3289    1.0362 C   0  0  0  0  0  0  0  0  0  0  0  0
   -4.7512   -1.6256    0.9803 C   0  0  0  0  0  0  0  0  0  0  0  0
   -4.3378   -2.5893   -0.1352 C   0  0  0  0  0  0  0  0  0  0  0  0
   -2.8655   -2.9824   -0.0844 C   0  0  0  0  0  0  0  0  0  0  0  0
   -0.8371    1.3393    0.8716 C   0  0  0  0  0  0  0  0  0  0  0  0
   -1.1376    2.1072    2.0870 C   0  0  0  0  0  0  0  0  0  0  0  0
   -1.5342    3.3703    2.1088 C   0  0  0  0  0  0  0  0  0  0  0  0
    0.4001    0.7015    0.8092 C   0  0  0  0  0  0  0  0  0  0  0  0
    0.8154   -0.0276   -0.2921 C   0  0  0  0  0  0  0  0  0  0  0  0
    2.1974   -0.6162   -0.3119 C   0  0  0  0  0  0  0  0  0  0  0  0
    3.1617    0.3414   -1.0213 C   0  0  0  0  0  0  0  0  0  0  0  0
    4.5692   -0.2319   -1.1863 C   0  0  0  0  0  0  0  0  0  0  0  0
    5.2902   -0.5645    0.1210 C   0  0  0  0  0  0  0  0  0  0  0  0
    5.5068    0.6471    1.0248 C   0  0  0  0  0  0  0  0  0  0  0  0
    6.3472    0.2915    2.2454 C   0  0  0  0  0  0  0  0  0  0  0  0
    0.6813   -2.6668   -3.6068 H   0  0  0  0  0  0  0  0  0  0  0  0
    0.3997   -2.7847   -1.8017 H   0  0  0  0  0  0  0  0  0  0  0  0
    0.3225   -0.2592   -3.5260 H   0  0  0  0  0  0  0  0  0  0  0  0
   -1.9373    0.4423   -2.1850 H   0  0  0  0  0  0  0  0  0  0  0  0
   -3.3118    2.3564   -1.0631 H   0  0  0  0  0  0  0  0  0  0  0  0
   -3.3067    2.3225    0.7063 H   0  0  0  0  0  0  0  0  0  0  0  0
   -3.9329   -0.0491   -1.0984 H   0  0  0  0  0  0  0  0  0  0  0  0
   -5.1327    0.9264   -0.2502 H   0  0  0  0  0  0  0  0  0  0  0  0
   -4.2562    0.2407    1.9155 H   0  0  0  0  0  0  0  0  0  0  0  0
   -2.8876   -0.5693    1.1662 H   0  0  0  0  0  0  0  0  0  0  0  0
   -5.8101   -1.3837    0.8567 H   0  0  0  0  0  0  0  0  0  0  0  0
   -4.6408   -2.1385    1.9394 H   0  0  0  0  0  0  0  0  0  0  0  0
   -4.5592   -2.1486   -1.1088 H   0  0  0  0  0  0  0  0  0  0  0  0
   -4.9496   -3.4907   -0.0444 H   0  0  0  0  0  0  0  0  0  0  0  0
   -2.2239   -2.1355   -0.3152 H   0  0  0  0  0  0  0  0  0  0  0  0
   -2.6623   -3.7658   -0.8117 H   0  0  0  0  0  0  0  0  0  0  0  0
   -2.6048   -3.3559    0.9038 H   0  0  0  0  0  0  0  0  0  0  0  0
   -0.9486    1.5869    3.0188 H   0  0  0  0  0  0  0  0  0  0  0  0
   -1.6839    3.9354    1.2035 H   0  0  0  0  0  0  0  0  0  0  0  0
   -1.7059    3.8954    3.0336 H   0  0  0  0  0  0  0  0  0  0  0  0
    1.0661    0.7905    1.6574 H   0  0  0  0  0  0  0  0  0  0  0  0
    2.2033   -1.5718   -0.8356 H   0  0  0  0  0  0  0  0  0  0  0  0
    2.5305   -0.7812    0.7133 H   0  0  0  0  0  0  0  0  0  0  0  0
    3.2016    1.2847   -0.4740 H   0  0  0  0  0  0  0  0  0  0  0  0
    2.7616    0.5586   -2.0151 H   0  0  0  0  0  0  0  0  0  0  0  0
    5.1712    0.4902   -1.7442 H   0  0  0  0  0  0  0  0  0  0  0  0
    4.5062   -1.1422   -1.7885 H   0  0  0  0  0  0  0  0  0  0  0  0
    6.2650   -0.9922   -0.1286 H   0  0  0  0  0  0  0  0  0  0  0  0
    4.7336   -1.3286    0.6666 H   0  0  0  0  0  0  0  0  0  0  0  0
    4.5439    1.0371    1.3584 H   0  0  0  0  0  0  0  0  0  0  0  0
    6.0067    1.4353    0.4568 H   0  0  0  0  0  0  0  0  0  0  0  0
    5.8608   -0.4873    2.8294 H   0  0  0  0  0  0  0  0  0  0  0  0
    6.4861    1.1617    2.8830 H   0  0  0  0  0  0  0  0  0  0  0  0
    7.3272   -0.0719    1.9430 H   0  0  0  0  0  0  0  0  0  0  0  0
  1  2  2  0  0  0  0
  2  3  1  0  0  0  0
  3  4  4  0  0  0  0
  4  5  4  0  0  0  0
  5  6  1  0  0  0  0
  6  7  1  0  0  0  0
  7  8  1  0  0  0  0
  8  9  1  0  0  0  0
  9 10  1  0  0  0  0
 10 11  1  0  0  0  0
  5 12  4  0  0  0  0
 12 13  1  0  0  0  0
 13 14  2  0  0  0  0
 12 15  4  0  0  0  0
  3 16  4  0  0  0  0
 15 16  4  0  0  0  0
 16 17  1  0  0  0  0
 17 18  1  0  0  0  0
 18 19  1  0  0  0  0
 19 20  1  0  0  0  0
 20 21  1  0  0  0  0
 21 22  1  0  0  0  0
  1 23  1  0  0  0  0
  1 24  1  0  0  0  0
  2 25  1  0  0  0  0
  4 26  1  0  0  0  0
  6 27  1  0  0  0  0
  6 28  1  0  0  0  0
  7 29  1  0  0  0  0
  7 30  1  0  0  0  0
  8 31  1  0  0  0  0
  8 32  1  0  0  0  0
  9 33  1  0  0  0  0
  9 34  1  0  0  0  0
 10 35  1  0  0  0  0
 10 36  1  0  0  0  0
 11 37  1  0  0  0  0
 11 38  1  0  0  0  0
 11 39  1  0  0  0  0
 13 40  1  0  0  0  0
 14 41  1  0  0  0  0
 14 42  1  0  0  0  0
 15 43  1  0  0  0  0
 17 44  1  0  0  0  0
 17 45  1  0  0  0  0
 18 46  1  0  0  0  0
 18 47  1  0  0  0  0
 19 48  1  0  0  0  0
 19 49  1  0  0  0  0
 20 50  1  0  0  0  0
 20 51  1  0  0  0  0
 21 52  1  0  0  0  0
 21 53  1  0  0  0  0
 22 54  1  0  0  0  0
 22 55  1  0  0  0  0
 22 56  1  0  0  0  0
M  END
