21

C          2.53678       -0.55719        1.01244
C          2.25420        0.10270       -0.11990
C          3.05680        1.23130       -0.68790
C          4.11570        1.02190       -1.59890
C          4.85660        2.10280       -2.12180
C          5.98460        1.92080       -3.08430
C          7.27142        1.75702       -2.74678
C          4.52140        3.40740       -1.72010
F          5.20740        4.47700       -2.19980
C          3.47910        3.62830       -0.82020
F          3.18190        4.90050       -0.45140
C          2.74510        2.55240       -0.30050
O          1.73800        2.78150        0.57130
H          1.88586       -1.36418        1.33356
H          3.39038       -0.33351        1.63673
H          1.36871       -0.22330       -0.65720
H          4.36310        0.02200       -1.89970
H          5.75874        1.92151       -4.14681
H          7.62173        1.74149       -1.72410
H          8.01449        1.63409       -3.52828
H          1.49040        3.66980        0.86460
21

C          1.13237       -0.39838       -0.65648
C          2.25420        0.10270       -0.11990
C          3.05680        1.23130       -0.68790
C          4.11570        1.02190       -1.59890
C          4.85660        2.10280       -2.12180
C          5.98460        1.92080       -3.08430
C          5.86860        1.90932       -4.41961
C          4.52140        3.40740       -1.72010
F          5.20740        4.47700       -2.19980
C          3.47910        3.62830       -0.82020
F          3.18190        4.90050       -0.45140
C          2.74510        2.55240       -0.30050
O          1.73800        2.78150        0.57130
H          0.62660       -1.21992       -0.15918
H          0.68962       -0.02666       -1.56983
H          2.59204       -0.35817        0.80343
H          4.36310        0.02200       -1.89970
H          6.98486        1.78321       -2.68370
H          4.92732        2.03277       -4.93689
H          6.75548        1.76786       -5.02907
H          1.49040        3.66980        0.86460
21

C          2.53678       -0.55719        1.01244
C          2.25420        0.10270       -0.11990
C          3.05680        1.23130       -0.68790
C          4.11570        1.02190       -1.59890
C          4.85660        2.10280       -2.12180
C          5.98460        1.92080       -3.08430
C          5.86860        1.90932       -4.41961
C          4.52140        3.40740       -1.72010
F          5.20740        4.47700       -2.19980
C          3.47910        3.62830       -0.82020
F          3.18190        4.90050       -0.45140
C          2.74510        2.55240       -0.30050
O          1.73800        2.78150        0.57130
H          1.88586       -1.36418        1.33356
H          3.39038       -0.33351        1.63673
H          1.36871       -0.22330       -0.65720
H          4.36310        0.02200       -1.89970
H          6.98486        1.78321       -2.68370
H          4.92732        2.03277       -4.93689
H          6.75548        1.76786       -5.02907
H          1.49040        3.66980        0.86460
21

C          1.13237       -0.39838       -0.65648
C          2.25420        0.10270       -0.11990
C          3.05680        1.23130       -0.68790
C          4.11570        1.02190       -1.59890
C          4.85660        2.10280       -2.12180
C          5.98460        1.92080       -3.08430
C          7.27142        1.75702       -2.74678
C          4.52140        3.40740       -1.72010
F          5.20740        4.47700       -2.19980
C          3.47910        3.62830       -0.82020
F          3.18190        4.90050       -0.45140
C          2.74510        2.55240       -0.30050
O          1.73800        2.78150        0.57130
H          0.62660       -1.21992       -0.15918
H          0.68962       -0.02666       -1.56983
H          2.59204       -0.35817        0.80343
H          4.36310        0.02200       -1.89970
H          5.75874        1.92151       -4.14681
H          7.62173        1.74149       -1.72410
H          8.01449        1.63409       -3.52828
H          1.49040        3.66980        0.86460
21

C          2.01154       -1.06336       -0.73548
C          2.25420        0.10270       -0.11990
C          3.05680        1.23130       -0.68790
C          4.11570        1.02190       -1.59890
C          4.85660        2.10280       -2.12180
C          5.98460        1.92080       -3.08430
C          6.41812        0.74306       -3.55507
C          4.52140        3.40740       -1.72010
F          5.20740        4.47700       -2.19980
C          3.47910        3.62830       -0.82020
F          3.18190        4.90050       -0.45140
C          2.74510        2.55240       -0.30050
O          1.73800        2.78150        0.57130
H          1.41338       -1.81577       -0.23138
H          2.37912       -1.30514       -1.72281
H          1.82338        0.22181        0.86968
H          4.36310        0.02200       -1.89970
H          6.50630        2.80553       -3.43787
H          5.98320       -0.20658       -3.27600
H          7.24964        0.72283       -4.25233
H          1.49040        3.66980        0.86460
21

C          2.70625       -1.14192        0.09008
C          2.25420        0.10270       -0.11990
C          3.05680        1.23130       -0.68790
C          4.11570        1.02190       -1.59890
C          4.85660        2.10280       -2.12180
C          5.98460        1.92080       -3.08430
C          6.41812        0.74306       -3.55507
C          4.52140        3.40740       -1.72010
F          5.20740        4.47700       -2.19980
C          3.47910        3.62830       -0.82020
F          3.18190        4.90050       -0.45140
C          2.74510        2.55240       -0.30050
O          1.73800        2.78150        0.57130
H          2.03629       -1.88713        0.50703
H          3.71510       -1.45693       -0.13664
H          1.21824        0.28852        0.14716
H          4.36310        0.02200       -1.89970
H          6.50630        2.80553       -3.43787
H          5.98320       -0.20658       -3.27600
H          7.24964        0.72283       -4.25233
H          1.49040        3.66980        0.86460
21

C          1.67617        0.09375        1.08977
C          2.25420        0.10270       -0.11990
C          3.05680        1.23130       -0.68790
C          4.11570        1.02190       -1.59890
C          4.85660        2.10280       -2.12180
C          5.98460        1.92080       -3.08430
C          7.27142        1.75702       -2.74678
C          4.52140        3.40740       -1.72010
F          5.20740        4.47700       -2.19980
C          3.47910        3.62830       -0.82020
F          3.18190        4.90050       -0.45140
C          2.74510        2.55240       -0.30050
O          1.73800        2.78150        0.57130
H          1.11570       -0.78091        1.40423
H          1.73655        0.91798        1.78649
H          2.12114       -0.79104       -0.72206
H          4.36310        0.02200       -1.89970
H          5.75874        1.92151       -4.14681
H          7.62173        1.74149       -1.72410
H          8.01449        1.63409       -3.52828
H          1.49040        3.66980        0.86460
21

C          1.67617        0.09375        1.08977
C          2.25420        0.10270       -0.11990
C          3.05680        1.23130       -0.68790
C          4.11570        1.02190       -1.59890
C          4.85660        2.10280       -2.12180
C          5.98460        1.92080       -3.08430
C          5.86860        1.90932       -4.41961
C          4.52140        3.40740       -1.72010
F          5.20740        4.47700       -2.19980
C          3.47910        3.62830       -0.82020
F          3.18190        4.90050       -0.45140
C          2.74510        2.55240       -0.30050
O          1.73800        2.78150        0.57130
H          1.11570       -0.78091        1.40423
H          1.73655        0.91798        1.78649
H          2.12114       -0.79104       -0.72206
H          4.36310        0.02200       -1.89970
H          6.98486        1.78321       -2.68370
H          4.92732        2.03277       -4.93689
H          6.75548        1.76786       -5.02907
H          1.49040        3.66980        0.86460
21

C          1.13237       -0.39838       -0.65648
C          2.25420        0.10270       -0.11990
C          3.05680        1.23130       -0.68790
C          4.11570        1.02190       -1.59890
C          4.85660        2.10280       -2.12180
C          5.98460        1.92080       -3.08430
C          6.34490        2.79991       -4.02981
C          4.52140        3.40740       -1.72010
F          5.20740        4.47700       -2.19980
C          3.47910        3.62830       -0.82020
F          3.18190        4.90050       -0.45140
C          2.74510        2.55240       -0.30050
O          1.73800        2.78150        0.57130
H          0.62660       -1.21992       -0.15918
H          0.68962       -0.02666       -1.56983
H          2.59204       -0.35817        0.80343
H          4.36310        0.02200       -1.89970
H          6.56707        1.00576       -3.02632
H          5.84180        3.74356       -4.18867
H          7.18212        2.56769       -4.68031
H          1.49040        3.66980        0.86460
21

C          2.53678       -0.55719        1.01244
C          2.25420        0.10270       -0.11990
C          3.05680        1.23130       -0.68790
C          4.11570        1.02190       -1.59890
C          4.85660        2.10280       -2.12180
C          5.98460        1.92080       -3.08430
C          6.34490        2.79991       -4.02981
C          4.52140        3.40740       -1.72010
F          5.20740        4.47700       -2.19980
C          3.47910        3.62830       -0.82020
F          3.18190        4.90050       -0.45140
C          2.74510        2.55240       -0.30050
O          1.73800        2.78150        0.57130
H          1.88586       -1.36418        1.33356
H          3.39038       -0.33351        1.63673
H          1.36871       -0.22330       -0.65720
H          4.36310        0.02200       -1.89970
H          6.56707        1.00576       -3.02632
H          5.84180        3.74356       -4.18867
H          7.18212        2.56769       -4.68031
H          1.49040        3.66980        0.86460
