
 OpenBabel02032210463D

 38 41  0  0  0  0  0  0  0  0999 V2000
    0.9567    0.0250    0.1039 O   0  0  0  0  0  0  0  0  0  0  0  0
    2.1789    0.0377    0.0745 C   0  0  0  0  0  0  0  0  0  0  0  0
    2.8638    1.2524   -0.0432 C   0  0  0  0  0  0  0  0  0  0  0  0
    2.1463    2.4650   -0.1332 C   0  0  0  0  0  0  0  0  0  0  0  0
    2.8130    3.6771   -0.2741 C   0  0  0  0  0  0  0  0  0  0  0  0
    4.1997    3.7015   -0.3378 C   0  0  0  0  0  0  0  0  0  0  0  0
    4.9299    2.5163   -0.2489 C   0  0  0  0  0  0  0  0  0  0  0  0
    4.2856    1.2590   -0.0824 C   0  0  0  0  0  0  0  0  0  0  0  0
    4.9952    0.0668    0.0066 N   0  0  0  0  0  0  0  0  0  0  0  0
    6.4524    0.0797   -0.0259 C   0  0  0  0  0  0  0  0  0  0  0  0
    7.1862    0.8169    0.9190 C   0  0  0  0  0  0  0  0  0  0  0  0
    8.5826    0.8213    0.8919 C   0  0  0  0  0  0  0  0  0  0  0  0
    9.2909    0.0869   -0.0755 C   0  0  0  0  0  0  0  0  0  0  0  0
   10.7840    0.1395   -0.0244 C   0  0  0  0  0  0  0  0  0  0  0  0
   11.6506   -0.5160   -0.8164 C   0  0  0  0  0  0  0  0  0  0  0  0
   11.2655   -1.3538   -1.8101 F   0  0  0  0  0  0  0  0  0  0  0  0
   12.9832   -0.3435   -0.6132 F   0  0  0  0  0  0  0  0  0  0  0  0
    8.5544   -0.6502   -1.0261 C   0  0  0  0  0  0  0  0  0  0  0  0
    7.1568   -0.6497   -0.9995 C   0  0  0  0  0  0  0  0  0  0  0  0
    4.3153   -1.1395    0.1300 C   0  0  0  0  0  0  0  0  0  0  0  0
    2.8934   -1.1625    0.1587 C   0  0  0  0  0  0  0  0  0  0  0  0
    2.2065   -2.3897    0.2843 C   0  0  0  0  0  0  0  0  0  0  0  0
    2.9042   -3.5874    0.3944 C   0  0  0  0  0  0  0  0  0  0  0  0
    4.2921   -3.5832    0.3918 C   0  0  0  0  0  0  0  0  0  0  0  0
    4.9925   -2.3833    0.2669 C   0  0  0  0  0  0  0  0  0  0  0  0
    1.0634    2.4796   -0.1000 H   0  0  0  0  0  0  0  0  0  0  0  0
    2.2515    4.5998   -0.3443 H   0  0  0  0  0  0  0  0  0  0  0  0
    4.7149    4.6457   -0.4607 H   0  0  0  0  0  0  0  0  0  0  0  0
    6.0000    2.6157   -0.3252 H   0  0  0  0  0  0  0  0  0  0  0  0
    6.6720    1.3836    1.6852 H   0  0  0  0  0  0  0  0  0  0  0  0
    9.1127    1.3998    1.6388 H   0  0  0  0  0  0  0  0  0  0  0  0
   11.2248    0.7733    0.7410 H   0  0  0  0  0  0  0  0  0  0  0  0
    9.0254   -1.2315   -1.7985 H   0  0  0  0  0  0  0  0  0  0  0  0
    6.6162   -1.2199   -1.7451 H   0  0  0  0  0  0  0  0  0  0  0  0
    1.1238   -2.4268    0.3034 H   0  0  0  0  0  0  0  0  0  0  0  0
    2.3660   -4.5216    0.4924 H   0  0  0  0  0  0  0  0  0  0  0  0
    4.8325   -4.5162    0.4912 H   0  0  0  0  0  0  0  0  0  0  0  0
    6.0661   -2.4628    0.2929 H   0  0  0  0  0  0  0  0  0  0  0  0
  1  2  2  0  0  0  0
  2  3  1  0  0  0  0
  2 21  1  0  0  0  0
  3  4  2  0  0  0  0
  3  8  1  0  0  0  0
  4  5  1  0  0  0  0
  4 26  1  0  0  0  0
  5  6  2  0  0  0  0
  5 27  1  0  0  0  0
  6  7  1  0  0  0  0
  6 28  1  0  0  0  0
  7  8  2  0  0  0  0
  7 29  1  0  0  0  0
  8  9  1  0  0  0  0
  9 10  1  0  0  0  0
  9 20  1  0  0  0  0
 10 11  1  0  0  0  0
 10 19  2  0  0  0  0
 11 12  2  0  0  0  0
 11 30  1  0  0  0  0
 12 13  1  0  0  0  0
 12 31  1  0  0  0  0
 13 14  1  0  0  0  0
 13 18  2  0  0  0  0
 14 15  2  0  0  0  0
 14 32  1  0  0  0  0
 15 16  1  0  0  0  0
 15 17  1  0  0  0  0
 18 19  1  0  0  0  0
 18 33  1  0  0  0  0
 19 34  1  0  0  0  0
 20 21  1  0  0  0  0
 20 25  2  0  0  0  0
 21 22  2  0  0  0  0
 22 23  1  0  0  0  0
 22 35  1  0  0  0  0
 23 24  2  0  0  0  0
 23 36  1  0  0  0  0
 24 25  1  0  0  0  0
 24 37  1  0  0  0  0
 25 38  1  0  0  0  0
M  END
