
 OpenBabel02032210463D

 38 41  0  0  0  0  0  0  0  0999 V2000
    0.9208    0.0354    0.0786 O   0  0  0  0  0  0  0  0  0  0  0  0
    2.1528    0.0389    0.0760 C   0  0  0  0  0  0  0  0  0  0  0  0
    2.8911    1.3037    0.0814 C   0  0  0  0  0  0  0  0  0  0  0  0
    2.1430    2.4955    0.0945 C   0  0  0  0  0  0  0  0  0  0  0  0
    2.7797    3.7275    0.0235 C   0  0  0  0  0  0  0  0  0  0  0  0
    4.1569    3.7594   -0.1194 C   0  0  0  0  0  0  0  0  0  0  0  0
    4.8916    2.5635   -0.1620 C   0  0  0  0  0  0  0  0  0  0  0  0
    4.2936    1.2972    0.0147 C   0  0  0  0  0  0  0  0  0  0  0  0
    5.0512    0.0478    0.0950 N   0  0  0  0  0  0  0  0  0  0  0  0
    6.5086    0.0536    0.0396 C   0  0  0  0  0  0  0  0  0  0  0  0
    7.2784    0.9816    0.7643 C   0  0  0  0  0  0  0  0  0  0  0  0
    8.6670    1.0865    0.5880 C   0  0  0  0  0  0  0  0  0  0  0  0
    9.3565    0.1688   -0.2070 C   0  0  0  0  0  0  0  0  0  0  0  0
   10.7976    0.3388   -0.4204 C   0  0  0  0  0  0  0  0  0  0  0  0
   11.6999   -0.6451   -0.4792 C   0  0  0  0  0  0  0  0  0  0  0  0
   11.3459   -1.9357   -0.3067 F   0  0  0  0  0  0  0  0  0  0  0  0
   12.9937   -0.3357   -0.7080 F   0  0  0  0  0  0  0  0  0  0  0  0
    8.6229   -0.8266   -0.8523 C   0  0  0  0  0  0  0  0  0  0  0  0
    7.2217   -0.8449   -0.7740 C   0  0  0  0  0  0  0  0  0  0  0  0
    4.3031   -1.2035    0.1550 C   0  0  0  0  0  0  0  0  0  0  0  0
    2.9015   -1.2205    0.0660 C   0  0  0  0  0  0  0  0  0  0  0  0
    2.1631   -2.4197    0.0054 C   0  0  0  0  0  0  0  0  0  0  0  0
    2.8153   -3.6427    0.0487 C   0  0  0  0  0  0  0  0  0  0  0  0
    4.1894   -3.6673    0.2187 C   0  0  0  0  0  0  0  0  0  0  0  0
    4.9123   -2.4677    0.3139 C   0  0  0  0  0  0  0  0  0  0  0  0
    1.0528    2.4628    0.1489 H   0  0  0  0  0  0  0  0  0  0  0  0
    2.2040    4.6480    0.0470 H   0  0  0  0  0  0  0  0  0  0  0  0
    4.6717    4.7129   -0.2083 H   0  0  0  0  0  0  0  0  0  0  0  0
    5.9526    2.6759   -0.3544 H   0  0  0  0  0  0  0  0  0  0  0  0
    6.8017    1.6769    1.4527 H   0  0  0  0  0  0  0  0  0  0  0  0
    9.1987    1.8983    1.0825 H   0  0  0  0  0  0  0  0  0  0  0  0
   11.1451    1.3599   -0.5480 H   0  0  0  0  0  0  0  0  0  0  0  0
    9.1196   -1.5793   -1.4621 H   0  0  0  0  0  0  0  0  0  0  0  0
    6.6990   -1.5804   -1.3820 H   0  0  0  0  0  0  0  0  0  0  0  0
    1.0789   -2.3916   -0.0766 H   0  0  0  0  0  0  0  0  0  0  0  0
    2.2464   -4.5697   -0.0204 H   0  0  0  0  0  0  0  0  0  0  0  0
    4.7123   -4.6188    0.2820 H   0  0  0  0  0  0  0  0  0  0  0  0
    5.9725   -2.5650    0.5171 H   0  0  0  0  0  0  0  0  0  0  0  0
  1  2  2  0  0  0  0
  2  3  1  0  0  0  0
  2 21  1  0  0  0  0
  3  4  2  0  0  0  0
  3  8  1  0  0  0  0
  4  5  1  0  0  0  0
  4 26  1  0  0  0  0
  5  6  2  0  0  0  0
  5 27  1  0  0  0  0
  6  7  1  0  0  0  0
  6 28  1  0  0  0  0
  7  8  2  0  0  0  0
  7 29  1  0  0  0  0
  8  9  1  0  0  0  0
  9 10  1  0  0  0  0
  9 20  1  0  0  0  0
 10 11  1  0  0  0  0
 10 19  2  0  0  0  0
 11 12  2  0  0  0  0
 11 30  1  0  0  0  0
 12 13  1  0  0  0  0
 12 31  1  0  0  0  0
 13 14  1  0  0  0  0
 13 18  2  0  0  0  0
 14 15  2  0  0  0  0
 14 32  1  0  0  0  0
 15 16  1  0  0  0  0
 15 17  1  0  0  0  0
 18 19  1  0  0  0  0
 18 33  1  0  0  0  0
 19 34  1  0  0  0  0
 20 21  1  0  0  0  0
 20 25  2  0  0  0  0
 21 22  2  0  0  0  0
 22 23  1  0  0  0  0
 22 35  1  0  0  0  0
 23 24  2  0  0  0  0
 23 36  1  0  0  0  0
 24 25  1  0  0  0  0
 24 37  1  0  0  0  0
 25 38  1  0  0  0  0
M  END
