
  xtb     02012213383D
 xtb: 6.4.1 (23d549d)
 45 49  0     0  0            999 V2000
    1.0178    0.0892    0.1624 c   0  0  0  0  0  0  0  0  0  0  0  0
    2.5175    0.0888    0.1287 c   0  0  0  0  0  0  0  0  0  0  0  0
    3.2321    1.2730    0.1116 c   0  0  0  0  0  0  0  0  0  0  0  0
    4.6201    1.2304    0.0823 c   0  0  0  0  0  0  0  0  0  0  0  0
    5.6368    2.2438    0.0295 c   0  0  0  0  0  0  0  0  0  0  0  0
    5.5992    3.6295    0.0225 c   0  0  0  0  0  0  0  0  0  0  0  0
    6.7911    4.3419   -0.0118 c   0  0  0  0  0  0  0  0  0  0  0  0
    6.7804    5.8123   -0.0260 c   0  0  0  0  0  0  0  0  0  0  0  0
    7.6991    6.5412    0.7263 c   0  0  0  0  0  0  0  0  0  0  0  0
    7.6879    7.9233    0.7081 c   0  0  0  0  0  0  0  0  0  0  0  0
    6.7602    8.6031   -0.0631 c   0  0  0  0  0  0  0  0  0  0  0  0
    5.8411    7.8899   -0.8141 c   0  0  0  0  0  0  0  0  0  0  0  0
    5.8497    6.5078   -0.7951 c   0  0  0  0  0  0  0  0  0  0  0  0
    8.0100    3.6497   -0.0265 c   0  0  0  0  0  0  0  0  0  0  0  0
    8.0714    2.2717   -0.0242 c   0  0  0  0  0  0  0  0  0  0  0  0
    6.8769    1.5654   -0.0112 c   0  0  0  0  0  0  0  0  0  0  0  0
    6.6559    0.2041    0.0221 n   0  0  0  0  0  0  0  0  0  0  0  0
    7.6430   -0.7895   -0.0057 c   0  0  0  0  0  0  0  0  0  0  0  0
    7.6284   -1.8174    0.9331 c   0  0  0  0  0  0  0  0  0  0  0  0
    8.6001   -2.8001    0.8963 c   0  0  0  0  0  0  0  0  0  0  0  0
    9.5980   -2.7613   -0.0632 c   0  0  0  0  0  0  0  0  0  0  0  0
    9.6180   -1.7357   -0.9938 c   0  0  0  0  0  0  0  0  0  0  0  0
    8.6436   -0.7554   -0.9731 c   0  0  0  0  0  0  0  0  0  0  0  0
    5.2918   -0.0117    0.0788 c   0  0  0  0  0  0  0  0  0  0  0  0
    4.5799   -1.2026    0.0741 c   0  0  0  0  0  0  0  0  0  0  0  0
    3.2020   -1.1311    0.1033 c   0  0  0  0  0  0  0  0  0  0  0  0
    0.6287    1.1041    0.1480 h   0  0  0  0  0  0  0  0  0  0  0  0
    0.6571   -0.4074    1.0628 h   0  0  0  0  0  0  0  0  0  0  0  0
    0.6174   -0.4487   -0.6963 h   0  0  0  0  0  0  0  0  0  0  0  0
    2.7197    2.2239    0.1154 h   0  0  0  0  0  0  0  0  0  0  0  0
    4.6531    4.1475    0.0707 h   0  0  0  0  0  0  0  0  0  0  0  0
    8.4142    6.0190    1.3454 h   0  0  0  0  0  0  0  0  0  0  0  0
    8.4050    8.4737    1.3002 h   0  0  0  0  0  0  0  0  0  0  0  0
    6.7537    9.6831   -0.0789 h   0  0  0  0  0  0  0  0  0  0  0  0
    5.1163    8.4141   -1.4204 h   0  0  0  0  0  0  0  0  0  0  0  0
    5.1417    5.9578   -1.3981 h   0  0  0  0  0  0  0  0  0  0  0  0
    8.9296    4.2151   -0.0598 h   0  0  0  0  0  0  0  0  0  0  0  0
    9.0234    1.7623   -0.0239 h   0  0  0  0  0  0  0  0  0  0  0  0
    6.8624   -1.8316    1.6941 h   0  0  0  0  0  0  0  0  0  0  0  0
    8.5826   -3.5957    1.6264 h   0  0  0  0  0  0  0  0  0  0  0  0
   10.3572   -3.5284   -0.0863 h   0  0  0  0  0  0  0  0  0  0  0  0
   10.3918   -1.7034   -1.7465 h   0  0  0  0  0  0  0  0  0  0  0  0
    8.6426    0.0322   -1.7119 h   0  0  0  0  0  0  0  0  0  0  0  0
    5.0831   -2.1570    0.0350 h   0  0  0  0  0  0  0  0  0  0  0  0
    2.6280   -2.0468    0.1017 h   0  0  0  0  0  0  0  0  0  0  0  0
  1  2  1  0  0  0  0
  2  3  4  0  0  0  0
  3  4  4  0  0  0  0
  4  5  1  0  0  0  0
  5  6  4  0  0  0  0
  6  7  4  0  0  0  0
  7  8  1  0  0  0  0
  8  9  4  0  0  0  0
  9 10  4  0  0  0  0
 10 11  4  0  0  0  0
 11 12  4  0  0  0  0
  8 13  4  0  0  0  0
 12 13  4  0  0  0  0
  7 14  4  0  0  0  0
 14 15  4  0  0  0  0
  5 16  4  0  0  0  0
 15 16  4  0  0  0  0
 16 17  1  0  0  0  0
 17 18  1  0  0  0  0
 18 19  4  0  0  0  0
 19 20  4  0  0  0  0
 20 21  4  0  0  0  0
 21 22  4  0  0  0  0
 18 23  4  0  0  0  0
 22 23  4  0  0  0  0
  4 24  4  0  0  0  0
 17 24  1  0  0  0  0
 24 25  4  0  0  0  0
  2 26  4  0  0  0  0
 25 26  4  0  0  0  0
  1 27  1  0  0  0  0
  1 28  1  0  0  0  0
  1 29  1  0  0  0  0
  3 30  1  0  0  0  0
  6 31  1  0  0  0  0
  9 32  1  0  0  0  0
 10 33  1  0  0  0  0
 11 34  1  0  0  0  0
 12 35  1  0  0  0  0
 13 36  1  0  0  0  0
 14 37  1  0  0  0  0
 15 38  1  0  0  0  0
 19 39  1  0  0  0  0
 20 40  1  0  0  0  0
 21 41  1  0  0  0  0
 22 42  1  0  0  0  0
 23 43  1  0  0  0  0
 25 44  1  0  0  0  0
 26 45  1  0  0  0  0
M  END
