
 OpenBabel08112216333D

 27 27  0  0  0  0  0  0  0  0999 V2000
    2.6413   -1.3758    0.8357 C   0  0  0  0  0  0  0  0  0  0  0  0
    2.2817   -0.1662    0.3852 C   0  0  0  0  0  0  0  0  0  0  0  0
    3.1016    1.0306    0.6017 C   0  0  0  0  0  0  0  0  0  0  0  0
    2.8458    1.7141    1.8022 C   0  0  0  0  0  0  0  0  0  0  0  0
    3.5925    2.8306    2.1560 C   0  0  0  0  0  0  0  0  0  0  0  0
    3.2723    3.6360    3.6423 Cl  0  0  0  0  0  0  0  0  0  0  0  0
    4.6081    3.2895    1.3256 C   0  0  0  0  0  0  0  0  0  0  0  0
    4.8815    2.6445    0.1092 C   0  0  0  0  0  0  0  0  0  0  0  0
    5.9947    3.1167   -0.7453 C   0  0  0  0  0  0  0  0  0  0  0  0
    6.4259    4.3742   -0.8824 C   0  0  0  0  0  0  0  0  0  0  0  0
    5.8474    5.3968   -0.2226 F   0  0  0  0  0  0  0  0  0  0  0  0
    7.4617    4.6240   -1.7103 F   0  0  0  0  0  0  0  0  0  0  0  0
    4.1209    1.4997   -0.2585 C   0  0  0  0  0  0  0  0  0  0  0  0
    4.5144    0.9072   -1.4363 O   0  0  0  0  0  0  0  0  0  0  0  0
    3.5249    0.2768   -2.2461 C   0  0  0  0  0  0  0  0  0  0  0  0
    3.9635    0.3852   -3.6965 C   0  0  0  0  0  0  0  0  0  0  0  0
    1.9963   -2.2348    0.6803 H   0  0  0  0  0  0  0  0  0  0  0  0
    3.5747   -1.5381    1.3647 H   0  0  0  0  0  0  0  0  0  0  0  0
    1.3348   -0.0200   -0.1281 H   0  0  0  0  0  0  0  0  0  0  0  0
    2.0682    1.3579    2.4764 H   0  0  0  0  0  0  0  0  0  0  0  0
    5.1945    4.1477    1.6457 H   0  0  0  0  0  0  0  0  0  0  0  0
    6.4963    2.3511   -1.3324 H   0  0  0  0  0  0  0  0  0  0  0  0
    2.5444    0.7546   -2.1465 H   0  0  0  0  0  0  0  0  0  0  0  0
    3.4659   -0.7827   -1.9780 H   0  0  0  0  0  0  0  0  0  0  0  0
    4.0241    1.4358   -3.9996 H   0  0  0  0  0  0  0  0  0  0  0  0
    3.2585   -0.1302   -4.3547 H   0  0  0  0  0  0  0  0  0  0  0  0
    4.9600   -0.0463   -3.8365 H   0  0  0  0  0  0  0  0  0  0  0  0
  1  2  2  0  0  0  0
  1 17  1  0  0  0  0
  1 18  1  0  0  0  0
  2  3  1  0  0  0  0
  2 19  1  0  0  0  0
  3  4  1  0  0  0  0
  3 13  2  0  0  0  0
  4  5  2  0  0  0  0
  4 20  1  0  0  0  0
  5  6  1  0  0  0  0
  5  7  1  0  0  0  0
  7  8  2  0  0  0  0
  7 21  1  0  0  0  0
  8  9  1  0  0  0  0
  8 13  1  0  0  0  0
  9 10  2  0  0  0  0
  9 22  1  0  0  0  0
 10 11  1  0  0  0  0
 10 12  1  0  0  0  0
 13 14  1  0  0  0  0
 14 15  1  0  0  0  0
 15 16  1  0  0  0  0
 15 23  1  0  0  0  0
 15 24  1  0  0  0  0
 16 25  1  0  0  0  0
 16 26  1  0  0  0  0
 16 27  1  0  0  0  0
M  END
