  27

 C          2.6622400000       -1.3831500000        0.7970400000
 C          2.2817000000       -0.1662000000        0.3852000000
 C          3.1016000000        1.0306000000        0.6017000000
 C          2.8458000000        1.7141000000        1.8022000000
 C          3.5925000000        2.8306000000        2.1560000000
 Cl         3.2723000000        3.6360000000        3.6423000000
 C          4.6081000000        3.2895000000        1.3256000000
 C          4.8815000000        2.6445000000        0.1092000000
 C          5.9947000000        3.1167000000       -0.7453000000
 C          7.2654100000        2.7041500000       -0.7116000000
 F          7.6827800000        1.7680700000        0.1631900000
 F          8.1525500000        3.2472900000       -1.5710700000
 C          4.1209000000        1.4997000000       -0.2585000000
 O          4.5144000000        0.9072000000       -1.4363000000
 C          3.8549600000       -0.2861600000       -1.8526300000
 C          2.6705400000        0.1072200000       -2.7187600000
 H          2.0172700000       -2.2425000000        0.6434500000
 H          3.6130800000       -1.5512600000        1.2920700000
 H          1.3179600000       -0.0146200000       -0.0940700000
 H          2.0682000000        1.3579000000        2.4764000000
 H          5.1945000000        4.1477000000        1.6457000000
 H          5.7422800000        3.8949500000       -1.4615700000
 H          3.4819200000       -0.8691700000       -1.0037900000
 H          4.5451800000       -0.8836000000       -2.4564100000
 H          1.9546600000        0.7004900000       -2.1400900000
 H          2.1606500000       -0.7797400000       -3.1050300000
 H          2.9921400000        0.7270500000       -3.5620800000
