
 OpenBabel02032210513D

 20 20  0  0  0  0  0  0  0  0999 V2000
    1.0106    0.0656   -0.2175 C   0  0  0  0  0  0  0  0  0  0  0  0
    2.3160   -0.1177    0.0216 C   0  0  0  0  0  0  0  0  0  0  0  0
    3.0580   -1.3481   -0.2914 C   0  0  0  0  0  0  0  0  0  0  0  0
    2.7162   -2.1705   -1.3705 C   0  0  0  0  0  0  0  0  0  0  0  0
    3.4603   -3.3167   -1.6390 C   0  0  0  0  0  0  0  0  0  0  0  0
    3.0233   -4.3251   -2.9644 Cl  0  0  0  0  0  0  0  0  0  0  0  0
    4.5572   -3.6549   -0.8486 C   0  0  0  0  0  0  0  0  0  0  0  0
    4.9250   -2.8458    0.2336 C   0  0  0  0  0  0  0  0  0  0  0  0
    6.1131   -3.2241    1.0116 C   0  0  0  0  0  0  0  0  0  0  0  0
    6.3395   -2.9718    2.3048 C   0  0  0  0  0  0  0  0  0  0  0  0
    5.4451   -2.3068    3.0642 F   0  0  0  0  0  0  0  0  0  0  0  0
    7.4853   -3.4138    2.8658 F   0  0  0  0  0  0  0  0  0  0  0  0
    4.1776   -1.6846    0.4888 C   0  0  0  0  0  0  0  0  0  0  0  0
    0.5290    1.0003    0.0542 H   0  0  0  0  0  0  0  0  0  0  0  0
    0.3818   -0.6962   -0.6658 H   0  0  0  0  0  0  0  0  0  0  0  0
    2.8802    0.6792    0.5020 H   0  0  0  0  0  0  0  0  0  0  0  0
    1.8778   -1.9194   -2.0145 H   0  0  0  0  0  0  0  0  0  0  0  0
    5.1206   -4.5557   -1.0803 H   0  0  0  0  0  0  0  0  0  0  0  0
    6.8726   -3.7896    0.4765 H   0  0  0  0  0  0  0  0  0  0  0  0
    4.4627   -1.0274    1.3094 H   0  0  0  0  0  0  0  0  0  0  0  0
  1  2  2  0  0  0  0
  1 14  1  0  0  0  0
  1 15  1  0  0  0  0
  2  3  1  0  0  0  0
  2 16  1  0  0  0  0
  3  4  1  0  0  0  0
  3 13  2  0  0  0  0
  4  5  2  0  0  0  0
  4 17  1  0  0  0  0
  5  6  1  0  0  0  0
  5  7  1  0  0  0  0
  7  8  2  0  0  0  0
  7 18  1  0  0  0  0
  8  9  1  0  0  0  0
  8 13  1  0  0  0  0
  9 10  2  0  0  0  0
  9 19  1  0  0  0  0
 10 11  1  0  0  0  0
 10 12  1  0  0  0  0
 13 20  1  0  0  0  0
M  END
