
 OpenBabel02032210513D

 20 20  0  0  0  0  0  0  0  0999 V2000
    1.0602    0.1809   -0.4054 C   0  0  0  0  0  0  0  0  0  0  0  0
    2.1591   -0.2579    0.2230 C   0  0  0  0  0  0  0  0  0  0  0  0
    2.9647   -1.4435   -0.1887 C   0  0  0  0  0  0  0  0  0  0  0  0
    2.6581   -2.2206   -1.3218 C   0  0  0  0  0  0  0  0  0  0  0  0
    3.4509   -3.3178   -1.6600 C   0  0  0  0  0  0  0  0  0  0  0  0
    3.0589   -4.2781   -3.0758 Cl  0  0  0  0  0  0  0  0  0  0  0  0
    4.5545   -3.6558   -0.8754 C   0  0  0  0  0  0  0  0  0  0  0  0
    4.8856   -2.9055    0.2651 C   0  0  0  0  0  0  0  0  0  0  0  0
    6.0802   -3.3432    1.0517 C   0  0  0  0  0  0  0  0  0  0  0  0
    6.5421   -2.8164    2.1993 C   0  0  0  0  0  0  0  0  0  0  0  0
    5.9558   -1.7700    2.8303 F   0  0  0  0  0  0  0  0  0  0  0  0
    7.6490   -3.3602    2.7705 F   0  0  0  0  0  0  0  0  0  0  0  0
    4.0796   -1.7946    0.5959 C   0  0  0  0  0  0  0  0  0  0  0  0
    0.5426    1.0556   -0.0249 H   0  0  0  0  0  0  0  0  0  0  0  0
    0.6505   -0.2979   -1.2846 H   0  0  0  0  0  0  0  0  0  0  0  0
    2.4796    0.2979    1.1000 H   0  0  0  0  0  0  0  0  0  0  0  0
    1.8140   -1.9919   -1.9542 H   0  0  0  0  0  0  0  0  0  0  0  0
    5.1535   -4.5136   -1.1580 H   0  0  0  0  0  0  0  0  0  0  0  0
    6.6395   -4.1898    0.6596 H   0  0  0  0  0  0  0  0  0  0  0  0
    4.2948   -1.1843    1.4551 H   0  0  0  0  0  0  0  0  0  0  0  0
  1  2  2  0  0  0  0
  1 14  1  0  0  0  0
  1 15  1  0  0  0  0
  2  3  1  0  0  0  0
  2 16  1  0  0  0  0
  3  4  1  0  0  0  0
  3 13  2  0  0  0  0
  4  5  2  0  0  0  0
  4 17  1  0  0  0  0
  5  6  1  0  0  0  0
  5  7  1  0  0  0  0
  7  8  2  0  0  0  0
  7 18  1  0  0  0  0
  8  9  1  0  0  0  0
  8 13  1  0  0  0  0
  9 10  2  0  0  0  0
  9 19  1  0  0  0  0
 10 11  1  0  0  0  0
 10 12  1  0  0  0  0
 13 20  1  0  0  0  0
M  END
