26

C          2.57024       -0.22844        1.34410
C          2.34350        0.18380        0.09130
C          3.22700        1.14460       -0.58290
C          2.90910        2.50690       -0.44350
C          3.68570        3.49560       -1.05230
C          3.40730        4.93260       -0.89750
C          3.89850        5.74411        0.04485
F          4.73205        5.29230        1.00432
F          3.53781        7.04488        0.04197
C          4.81100        3.09060       -1.78280
F          5.58290        4.03210       -2.35780
C          5.16330        1.73780       -1.93780
C          6.30000        1.36430       -2.68060
C          6.65300        0.02460       -2.83440
C          5.87280       -0.96420       -2.25040
C          4.74200       -0.61120       -1.51120
C          4.36210        0.73990       -1.33400
H          1.89957       -0.93485        1.82252
H          3.42288        0.12165        1.91887
H          1.48760       -0.17063       -0.47576
H          2.04620        2.78200        0.16070
H          2.71494        5.36060       -1.61788
H          6.92180        2.12780       -3.14620
H          7.53530       -0.24400       -3.40920
H          6.14070       -2.01110       -2.36550
H          4.15370       -1.41100       -1.06530
26

C          1.27278       -0.34084       -0.51631
C          2.34350        0.18380        0.09130
C          3.22700        1.14460       -0.58290
C          2.90910        2.50690       -0.44350
C          3.68570        3.49560       -1.05230
C          3.40730        4.93260       -0.89750
C          2.62438        5.68304       -1.67963
F          1.99134        5.16605       -2.75272
F          2.47723        6.99410       -1.39405
C          4.81100        3.09060       -1.78280
F          5.58290        4.03210       -2.35780
C          5.16330        1.73780       -1.93780
C          6.30000        1.36430       -2.68060
C          6.65300        0.02460       -2.83440
C          5.87280       -0.96420       -2.25040
C          4.74200       -0.61120       -1.51120
C          4.36210        0.73990       -1.33400
H          0.63844       -1.05322        0.00119
H          1.00167       -0.07483       -1.53398
H          2.60788       -0.08881        1.10891
H          2.04620        2.78200        0.16070
H          3.91145        5.42570       -0.07035
H          6.92180        2.12780       -3.14620
H          7.53530       -0.24400       -3.40920
H          6.14070       -2.01110       -2.36550
H          4.15370       -1.41100       -1.06530
26

C          2.57024       -0.22844        1.34410
C          2.34350        0.18380        0.09130
C          3.22700        1.14460       -0.58290
C          2.90910        2.50690       -0.44350
C          3.68570        3.49560       -1.05230
C          3.40730        4.93260       -0.89750
C          2.62438        5.68304       -1.67963
F          1.99134        5.16605       -2.75272
F          2.47723        6.99410       -1.39405
C          4.81100        3.09060       -1.78280
F          5.58290        4.03210       -2.35780
C          5.16330        1.73780       -1.93780
C          6.30000        1.36430       -2.68060
C          6.65300        0.02460       -2.83440
C          5.87280       -0.96420       -2.25040
C          4.74200       -0.61120       -1.51120
C          4.36210        0.73990       -1.33400
H          1.89957       -0.93485        1.82252
H          3.42288        0.12165        1.91887
H          1.48760       -0.17063       -0.47576
H          2.04620        2.78200        0.16070
H          3.91145        5.42570       -0.07035
H          6.92180        2.12780       -3.14620
H          7.53530       -0.24400       -3.40920
H          6.14070       -2.01110       -2.36550
H          4.15370       -1.41100       -1.06530
26

C          1.27278       -0.34084       -0.51631
C          2.34350        0.18380        0.09130
C          3.22700        1.14460       -0.58290
C          2.90910        2.50690       -0.44350
C          3.68570        3.49560       -1.05230
C          3.40730        4.93260       -0.89750
C          2.84257        5.52729        0.15857
F          2.44014        4.82326        1.23649
F          2.65862        6.86437        0.13649
C          4.81100        3.09060       -1.78280
F          5.58290        4.03210       -2.35780
C          5.16330        1.73780       -1.93780
C          6.30000        1.36430       -2.68060
C          6.65300        0.02460       -2.83440
C          5.87280       -0.96420       -2.25040
C          4.74200       -0.61120       -1.51120
C          4.36210        0.73990       -1.33400
H          0.63844       -1.05322        0.00119
H          1.00167       -0.07483       -1.53398
H          2.60788       -0.08881        1.10891
H          2.04620        2.78200        0.16070
H          3.67546        5.56022       -1.74348
H          6.92180        2.12780       -3.14620
H          7.53530       -0.24400       -3.40920
H          6.14070       -2.01110       -2.36550
H          4.15370       -1.41100       -1.06530
26

C          1.27278       -0.34084       -0.51631
C          2.34350        0.18380        0.09130
C          3.22700        1.14460       -0.58290
C          2.90910        2.50690       -0.44350
C          3.68570        3.49560       -1.05230
C          3.40730        4.93260       -0.89750
C          3.89850        5.74411        0.04485
F          4.73205        5.29230        1.00432
F          3.53781        7.04488        0.04197
C          4.81100        3.09060       -1.78280
F          5.58290        4.03210       -2.35780
C          5.16330        1.73780       -1.93780
C          6.30000        1.36430       -2.68060
C          6.65300        0.02460       -2.83440
C          5.87280       -0.96420       -2.25040
C          4.74200       -0.61120       -1.51120
C          4.36210        0.73990       -1.33400
H          0.63844       -1.05322        0.00119
H          1.00167       -0.07483       -1.53398
H          2.60788       -0.08881        1.10891
H          2.04620        2.78200        0.16070
H          2.71494        5.36060       -1.61788
H          6.92180        2.12780       -3.14620
H          7.53530       -0.24400       -3.40920
H          6.14070       -2.01110       -2.36550
H          4.15370       -1.41100       -1.06530
26

C          2.13702       -1.04741       -0.39072
C          2.34350        0.18380        0.09130
C          3.22700        1.14460       -0.58290
C          2.90910        2.50690       -0.44350
C          3.68570        3.49560       -1.05230
C          3.40730        4.93260       -0.89750
C          3.65801        5.89528       -1.79095
F          4.23486        5.62518       -2.97999
F          3.33786        7.17080       -1.48656
C          4.81100        3.09060       -1.78280
F          5.58290        4.03210       -2.35780
C          5.16330        1.73780       -1.93780
C          6.30000        1.36430       -2.68060
C          6.65300        0.02460       -2.83440
C          5.87280       -0.96420       -2.25040
C          4.74200       -0.61120       -1.51120
C          4.36210        0.73990       -1.33400
H          1.48391       -1.74111        0.12883
H          2.60654       -1.39180       -1.30771
H          1.87074        0.51946        1.00976
H          2.04620        2.78200        0.16070
H          2.97121        5.23029        0.05260
H          6.92180        2.12780       -3.14620
H          7.53530       -0.24400       -3.40920
H          6.14070       -2.01110       -2.36550
H          4.15370       -1.41100       -1.06530
26

C          2.79267       -0.99062        0.54941
C          2.34350        0.18380        0.09130
C          3.22700        1.14460       -0.58290
C          2.90910        2.50690       -0.44350
C          3.68570        3.49560       -1.05230
C          3.40730        4.93260       -0.89750
C          3.89850        5.74411        0.04485
F          4.73205        5.29230        1.00432
F          3.53781        7.04488        0.04197
C          4.81100        3.09060       -1.78280
F          5.58290        4.03210       -2.35780
C          5.16330        1.73780       -1.93780
C          6.30000        1.36430       -2.68060
C          6.65300        0.02460       -2.83440
C          5.87280       -0.96420       -2.25040
C          4.74200       -0.61120       -1.51120
C          4.36210        0.73990       -1.33400
H          2.12120       -1.68129        1.04921
H          3.83005       -1.29251        0.43714
H          1.30462        0.47811        0.20897
H          2.04620        2.78200        0.16070
H          2.71494        5.36060       -1.61788
H          6.92180        2.12780       -3.14620
H          7.53530       -0.24400       -3.40920
H          6.14070       -2.01110       -2.36550
H          4.15370       -1.41100       -1.06530
26

C          2.13702       -1.04741       -0.39072
C          2.34350        0.18380        0.09130
C          3.22700        1.14460       -0.58290
C          2.90910        2.50690       -0.44350
C          3.68570        3.49560       -1.05230
C          3.40730        4.93260       -0.89750
C          3.89850        5.74411        0.04485
F          4.73205        5.29230        1.00432
F          3.53781        7.04488        0.04197
C          4.81100        3.09060       -1.78280
F          5.58290        4.03210       -2.35780
C          5.16330        1.73780       -1.93780
C          6.30000        1.36430       -2.68060
C          6.65300        0.02460       -2.83440
C          5.87280       -0.96420       -2.25040
C          4.74200       -0.61120       -1.51120
C          4.36210        0.73990       -1.33400
H          1.48391       -1.74111        0.12883
H          2.60654       -1.39180       -1.30771
H          1.87074        0.51946        1.00976
H          2.04620        2.78200        0.16070
H          2.71494        5.36060       -1.61788
H          6.92180        2.12780       -3.14620
H          7.53530       -0.24400       -3.40920
H          6.14070       -2.01110       -2.36550
H          4.15370       -1.41100       -1.06530
26

C          2.13702       -1.04741       -0.39072
C          2.34350        0.18380        0.09130
C          3.22700        1.14460       -0.58290
C          2.90910        2.50690       -0.44350
C          3.68570        3.49560       -1.05230
C          3.40730        4.93260       -0.89750
C          2.62438        5.68304       -1.67963
F          1.99134        5.16605       -2.75272
F          2.47723        6.99410       -1.39405
C          4.81100        3.09060       -1.78280
F          5.58290        4.03210       -2.35780
C          5.16330        1.73780       -1.93780
C          6.30000        1.36430       -2.68060
C          6.65300        0.02460       -2.83440
C          5.87280       -0.96420       -2.25040
C          4.74200       -0.61120       -1.51120
C          4.36210        0.73990       -1.33400
H          1.48391       -1.74111        0.12883
H          2.60654       -1.39180       -1.30771
H          1.87074        0.51946        1.00976
H          2.04620        2.78200        0.16070
H          3.91145        5.42570       -0.07035
H          6.92180        2.12780       -3.14620
H          7.53530       -0.24400       -3.40920
H          6.14070       -2.01110       -2.36550
H          4.15370       -1.41100       -1.06530
26

C          2.79267       -0.99062        0.54941
C          2.34350        0.18380        0.09130
C          3.22700        1.14460       -0.58290
C          2.90910        2.50690       -0.44350
C          3.68570        3.49560       -1.05230
C          3.40730        4.93260       -0.89750
C          2.62438        5.68304       -1.67963
F          1.99134        5.16605       -2.75272
F          2.47723        6.99410       -1.39405
C          4.81100        3.09060       -1.78280
F          5.58290        4.03210       -2.35780
C          5.16330        1.73780       -1.93780
C          6.30000        1.36430       -2.68060
C          6.65300        0.02460       -2.83440
C          5.87280       -0.96420       -2.25040
C          4.74200       -0.61120       -1.51120
C          4.36210        0.73990       -1.33400
H          2.12120       -1.68129        1.04921
H          3.83005       -1.29251        0.43714
H          1.30462        0.47811        0.20897
H          2.04620        2.78200        0.16070
H          3.91145        5.42570       -0.07035
H          6.92180        2.12780       -3.14620
H          7.53530       -0.24400       -3.40920
H          6.14070       -2.01110       -2.36550
H          4.15370       -1.41100       -1.06530
