  26

 C          1.1993500000        0.6296900000        0.5127900000
 C          2.2815000000       -0.0227000000        0.0712000000
 C          2.9975000000       -1.0016000000        0.8995000000
 C          2.5779000000       -2.3401000000        0.8046000000
 C          3.1713000000       -3.3399000000        1.5788000000
 C          2.7835000000       -4.7558000000        1.4768000000
 C          1.8357000000       -5.3762400000        2.1866600000
 F          1.1154000000       -4.7284600000        3.1251600000
 F          1.6043700000       -6.6886400000        1.9657500000
 C          4.2186000000       -2.9737000000        2.4346000000
 F          4.8123000000       -3.9268000000        3.1765000000
 C          4.6729000000       -1.6466000000        2.5464000000
 C          5.7239000000       -1.3100000000        3.4213000000
 C          6.1836000000        0.0024000000        3.5252000000
 C          5.6000000000        0.9992000000        2.7557000000
 C          4.5509000000        0.6845000000        1.8893000000
 C          4.0619000000       -0.6374000000        1.7652000000
 H          0.6977800000        1.3551500000       -0.1200100000
 H          0.7894400000        0.4586300000        1.5034800000
 H          2.6845800000        0.1575500000       -0.9213300000
 H          1.7790000000       -2.5870000000        0.1070000000
 H          3.3457800000       -5.3500100000        0.7605400000
 H          6.1931000000       -2.0801000000        4.0315000000
 H          6.9974000000        0.2423000000        4.2049000000
 H          5.9573000000        2.0236000000        2.8255000000
 H          4.1173000000        1.4893000000        1.2991000000
