
 OpenBabel02012213503D

 16 16  0  0  0  0  0  0  0  0999 V2000
    1.0777    0.0502   -0.0524 C   0  0  0  0  0  0  0  0  0  0  0  0
    2.5708    0.1038    0.0330 C   0  0  0  0  0  0  0  0  0  0  0  0
    3.2549    1.3235    0.0709 C   0  0  0  0  0  0  0  0  0  0  0  0
    4.6458    1.3217    0.1508 C   0  0  0  0  0  0  0  0  0  0  0  0
    5.3265    0.0999    0.1904 C   0  0  0  0  0  0  0  0  0  0  0  0
    6.8194    0.0423    0.2753 C   0  0  0  0  0  0  0  0  0  0  0  0
    4.6132   -1.0569    0.1504 N   0  0  0  0  0  0  0  0  0  0  0  0
    3.2809   -1.0552    0.0748 N   0  0  0  0  0  0  0  0  0  0  0  0
    0.6345    1.0684   -0.0822 H   0  0  0  0  0  0  0  0  0  0  0  0
    0.6754   -0.4856    0.8326 H   0  0  0  0  0  0  0  0  0  0  0  0
    0.7790   -0.4932   -0.9731 H   0  0  0  0  0  0  0  0  0  0  0  0
    2.7195    2.2644    0.0395 H   0  0  0  0  0  0  0  0  0  0  0  0
    5.1839    2.2610    0.1808 H   0  0  0  0  0  0  0  0  0  0  0  0
    7.2656    1.0593    0.3030 H   0  0  0  0  0  0  0  0  0  0  0  0
    7.2197   -0.4963   -0.6090 H   0  0  0  0  0  0  0  0  0  0  0  0
    7.1170   -0.5004    1.1968 H   0  0  0  0  0  0  0  0  0  0  0  0
  1  2  1  0  0  0  0
  1  9  1  0  0  0  0
  1 10  1  0  0  0  0
  1 11  1  0  0  0  0
  2  3  1  0  0  0  0
  2  8  2  0  0  0  0
  3  4  2  0  0  0  0
  3 12  1  0  0  0  0
  4  5  1  0  0  0  0
  4 13  1  0  0  0  0
  5  6  1  0  0  0  0
  5  7  2  0  0  0  0
  6 14  1  0  0  0  0
  6 15  1  0  0  0  0
  6 16  1  0  0  0  0
  7  8  1  0  0  0  0
M  END
