27

C          1.30222        0.59196        0.19862
C          2.53360        0.25510       -0.22130
C          3.16050       -1.11040       -0.09380
C          4.56640       -1.18660        0.04620
C          5.23240       -2.40330        0.17130
C          6.72960       -2.45150        0.30360
C          4.50910       -3.58850        0.17280
C          3.11100       -3.58410        0.03670
C          2.33300       -4.86970        0.04890
C          2.02880       -5.60739       -1.02921
C          2.41730       -2.34900       -0.10960
O          1.05960       -2.47030       -0.23550
C          0.10179       -1.70988       -0.86085
H          0.94845        1.60776        0.04883
H          0.61049       -0.09107        0.66938
H          3.04811        1.06988       -0.68183
H          5.17900       -0.30100        0.04700
H          7.17910       -1.43620        0.28490
H          7.15820       -3.03680       -0.53730
H          7.00500       -2.93850        1.26270
H          5.06350       -4.50790        0.27590
H          1.98458       -5.26330        0.99861
H          2.31885       -5.34534       -2.03655
H          1.46536       -6.52603       -0.90227
H         -0.88594       -2.18748       -0.69691
H          0.27550       -1.69623       -1.95773
H          0.05322       -0.69678       -0.41068
27

C          3.19751        1.42355       -0.21405
C          2.53360        0.25510       -0.22130
C          3.16050       -1.11040       -0.09380
C          4.56640       -1.18660        0.04620
C          5.23240       -2.40330        0.17130
C          6.72960       -2.45150        0.30360
C          4.50910       -3.58850        0.17280
C          3.11100       -3.58410        0.03670
C          2.33300       -4.86970        0.04890
C          2.02880       -5.60739       -1.02921
C          2.41730       -2.34900       -0.10960
O          1.05960       -2.47030       -0.23550
C          0.04311       -1.55711       -0.37526
H          2.64151        2.35188       -0.30636
H          4.26779        1.51598       -0.10186
H          1.47777        0.38280       -0.31916
H          5.17900       -0.30100        0.04700
H          7.17910       -1.43620        0.28490
H          7.15820       -3.03680       -0.53730
H          7.00500       -2.93850        1.26270
H          5.06350       -4.50790        0.27590
H          1.98458       -5.26330        0.99861
H          2.31885       -5.34534       -2.03655
H          1.46536       -6.52603       -0.90227
H         -0.91713       -2.10923       -0.43592
H          0.15481       -0.99837       -1.32859
H         -0.01468       -0.89873        0.51614
27

C          1.30222        0.59196        0.19862
C          2.53360        0.25510       -0.22130
C          3.16050       -1.11040       -0.09380
C          4.56640       -1.18660        0.04620
C          5.23240       -2.40330        0.17130
C          6.72960       -2.45150        0.30360
C          4.50910       -3.58850        0.17280
C          3.11100       -3.58410        0.03670
C          2.33300       -4.86970        0.04890
C          1.81828       -5.45943        1.13809
C          2.41730       -2.34900       -0.10960
O          1.05960       -2.47030       -0.23550
C          0.24846       -3.43631       -0.77917
H          0.94845        1.60776        0.04883
H          0.61049       -0.09107        0.66938
H          3.04811        1.06988       -0.68183
H          5.17900       -0.30100        0.04700
H          7.17910       -1.43620        0.28490
H          7.15820       -3.03680       -0.53730
H          7.00500       -2.93850        1.26270
H          5.06350       -4.50790        0.27590
H          2.14795       -5.38010       -0.89106
H          1.91374       -5.06057        2.13776
H          1.26609       -6.38712        1.02876
H         -0.80625       -3.11186       -0.66562
H          0.35489       -4.38946       -0.21910
H          0.44237       -3.54130       -1.86672
27

C          2.30799        0.90679       -1.37477
C          2.53360        0.25510       -0.22130
C          3.16050       -1.11040       -0.09380
C          4.56640       -1.18660        0.04620
C          5.23240       -2.40330        0.17130
C          6.72960       -2.45150        0.30360
C          4.50910       -3.58850        0.17280
C          3.11100       -3.58410        0.03670
C          2.33300       -4.86970        0.04890
C          2.02880       -5.60739       -1.02921
C          2.41730       -2.34900       -0.10960
O          1.05960       -2.47030       -0.23550
C          0.24846       -3.43631       -0.77917
H          1.85472        1.89336       -1.34851
H          2.56588        0.52458       -2.35152
H          2.22684        0.81574        0.63442
H          5.17900       -0.30100        0.04700
H          7.17910       -1.43620        0.28490
H          7.15820       -3.03680       -0.53730
H          7.00500       -2.93850        1.26270
H          5.06350       -4.50790        0.27590
H          1.98458       -5.26330        0.99861
H          2.31885       -5.34534       -2.03655
H          1.46536       -6.52603       -0.90227
H         -0.80625       -3.11186       -0.66562
H          0.35489       -4.38946       -0.21910
H          0.44237       -3.54130       -1.86672
27

C          2.09727        1.01303        0.79912
C          2.53360        0.25510       -0.22130
C          3.16050       -1.11040       -0.09380
C          4.56640       -1.18660        0.04620
C          5.23240       -2.40330        0.17130
C          6.72960       -2.45150        0.30360
C          4.50910       -3.58850        0.17280
C          3.11100       -3.58410        0.03670
C          2.33300       -4.86970        0.04890
C          2.68344       -5.98712        0.70283
C          2.41730       -2.34900       -0.10960
O          1.05960       -2.47030       -0.23550
C          0.04311       -1.55711       -0.37526
H          1.65420        1.98233        0.59031
H          2.13634        0.71852        1.83757
H          2.38248        0.71856       -1.17158
H          5.17900       -0.30100        0.04700
H          7.17910       -1.43620        0.28490
H          7.15820       -3.03680       -0.53730
H          7.00500       -2.93850        1.26270
H          5.06350       -4.50790        0.27590
H          1.39877       -4.92302       -0.50123
H          3.57997       -6.07687        1.29924
H          2.03991       -6.85903        0.64693
H         -0.91713       -2.10923       -0.43592
H          0.15481       -0.99837       -1.32859
H         -0.01468       -0.89873        0.51614
27

C          2.30799        0.90679       -1.37477
C          2.53360        0.25510       -0.22130
C          3.16050       -1.11040       -0.09380
C          4.56640       -1.18660        0.04620
C          5.23240       -2.40330        0.17130
C          6.72960       -2.45150        0.30360
C          4.50910       -3.58850        0.17280
C          3.11100       -3.58410        0.03670
C          2.33300       -4.86970        0.04890
C          1.81828       -5.45943        1.13809
C          2.41730       -2.34900       -0.10960
O          1.05960       -2.47030       -0.23550
C          0.24846       -3.43631       -0.77917
H          1.85472        1.89336       -1.34851
H          2.56588        0.52458       -2.35152
H          2.22684        0.81574        0.63442
H          5.17900       -0.30100        0.04700
H          7.17910       -1.43620        0.28490
H          7.15820       -3.03680       -0.53730
H          7.00500       -2.93850        1.26270
H          5.06350       -4.50790        0.27590
H          2.14795       -5.38010       -0.89106
H          1.91374       -5.06057        2.13776
H          1.26609       -6.38712        1.02876
H         -0.80625       -3.11186       -0.66562
H          0.35489       -4.38946       -0.21910
H          0.44237       -3.54130       -1.86672
27

C          3.19751        1.42355       -0.21405
C          2.53360        0.25510       -0.22130
C          3.16050       -1.11040       -0.09380
C          4.56640       -1.18660        0.04620
C          5.23240       -2.40330        0.17130
C          6.72960       -2.45150        0.30360
C          4.50910       -3.58850        0.17280
C          3.11100       -3.58410        0.03670
C          2.33300       -4.86970        0.04890
C          1.81828       -5.45943        1.13809
C          2.41730       -2.34900       -0.10960
O          1.05960       -2.47030       -0.23550
C          0.24846       -3.43631       -0.77917
H          2.64151        2.35188       -0.30636
H          4.26779        1.51598       -0.10186
H          1.47777        0.38280       -0.31916
H          5.17900       -0.30100        0.04700
H          7.17910       -1.43620        0.28490
H          7.15820       -3.03680       -0.53730
H          7.00500       -2.93850        1.26270
H          5.06350       -4.50790        0.27590
H          2.14795       -5.38010       -0.89106
H          1.91374       -5.06057        2.13776
H          1.26609       -6.38712        1.02876
H         -0.80625       -3.11186       -0.66562
H          0.35489       -4.38946       -0.21910
H          0.44237       -3.54130       -1.86672
27

C          1.40871        0.53827       -0.89992
C          2.53360        0.25510       -0.22130
C          3.16050       -1.11040       -0.09380
C          4.56640       -1.18660        0.04620
C          5.23240       -2.40330        0.17130
C          6.72960       -2.45150        0.30360
C          4.50910       -3.58850        0.17280
C          3.11100       -3.58410        0.03670
C          2.33300       -4.86970        0.04890
C          1.81828       -5.45943        1.13809
C          2.41730       -2.34900       -0.10960
O          1.05960       -2.47030       -0.23550
C          0.10179       -1.70988       -0.86085
H          1.04977        1.56280       -0.93092
H          0.82755       -0.18908       -1.44751
H          2.96946        1.11899        0.23081
H          5.17900       -0.30100        0.04700
H          7.17910       -1.43620        0.28490
H          7.15820       -3.03680       -0.53730
H          7.00500       -2.93850        1.26270
H          5.06350       -4.50790        0.27590
H          2.14795       -5.38010       -0.89106
H          1.91374       -5.06057        2.13776
H          1.26609       -6.38712        1.02876
H         -0.88594       -2.18748       -0.69691
H          0.27550       -1.69623       -1.95773
H          0.05322       -0.69678       -0.41068
27

C          2.30799        0.90679       -1.37477
C          2.53360        0.25510       -0.22130
C          3.16050       -1.11040       -0.09380
C          4.56640       -1.18660        0.04620
C          5.23240       -2.40330        0.17130
C          6.72960       -2.45150        0.30360
C          4.50910       -3.58850        0.17280
C          3.11100       -3.58410        0.03670
C          2.33300       -4.86970        0.04890
C          2.02880       -5.60739       -1.02921
C          2.41730       -2.34900       -0.10960
O          1.05960       -2.47030       -0.23550
C          0.04311       -1.55711       -0.37526
H          1.85472        1.89336       -1.34851
H          2.56588        0.52458       -2.35152
H          2.22684        0.81574        0.63442
H          5.17900       -0.30100        0.04700
H          7.17910       -1.43620        0.28490
H          7.15820       -3.03680       -0.53730
H          7.00500       -2.93850        1.26270
H          5.06350       -4.50790        0.27590
H          1.98458       -5.26330        0.99861
H          2.31885       -5.34534       -2.03655
H          1.46536       -6.52603       -0.90227
H         -0.91713       -2.10923       -0.43592
H          0.15481       -0.99837       -1.32859
H         -0.01468       -0.89873        0.51614
27

C          1.30222        0.59196        0.19862
C          2.53360        0.25510       -0.22130
C          3.16050       -1.11040       -0.09380
C          4.56640       -1.18660        0.04620
C          5.23240       -2.40330        0.17130
C          6.72960       -2.45150        0.30360
C          4.50910       -3.58850        0.17280
C          3.11100       -3.58410        0.03670
C          2.33300       -4.86970        0.04890
C          1.81828       -5.45943        1.13809
C          2.41730       -2.34900       -0.10960
O          1.05960       -2.47030       -0.23550
C          0.10179       -1.70988       -0.86085
H          0.94845        1.60776        0.04883
H          0.61049       -0.09107        0.66938
H          3.04811        1.06988       -0.68183
H          5.17900       -0.30100        0.04700
H          7.17910       -1.43620        0.28490
H          7.15820       -3.03680       -0.53730
H          7.00500       -2.93850        1.26270
H          5.06350       -4.50790        0.27590
H          2.14795       -5.38010       -0.89106
H          1.91374       -5.06057        2.13776
H          1.26609       -6.38712        1.02876
H         -0.88594       -2.18748       -0.69691
H          0.27550       -1.69623       -1.95773
H          0.05322       -0.69678       -0.41068
