
  xtb     02032211343D
 xtb: 6.4.1 (23d549d)
 19 19  0     0  0            999 V2000
   -2.6806   -2.4813    0.1604 C   0  0  0  0  0  0  0  0  0  0  0  0
   -1.4996   -1.8742    0.1436 C   0  0  0  0  0  0  0  0  0  0  0  0
   -1.3571   -0.4287   -0.0059 C   0  0  0  0  0  0  0  0  0  0  0  0
   -2.4762    0.2846    0.0868 N   0  0  0  0  0  0  0  0  0  0  0  0
   -2.4247    1.5973    0.0239 C   0  0  0  0  0  0  0  0  0  0  0  0
   -1.2389    2.3038   -0.1256 C   0  0  0  0  0  0  0  0  0  0  0  0
   -0.0669    1.5820   -0.2526 C   0  0  0  0  0  0  0  0  0  0  0  0
   -0.1024    0.1883   -0.2054 C   0  0  0  0  0  0  0  0  0  0  0  0
    1.1098   -0.6013   -0.3961 C   0  0  0  0  0  0  0  0  0  0  0  0
    2.3279   -0.2463   -0.0192 C   0  0  0  0  0  0  0  0  0  0  0  0
    2.6786    0.8570    0.6311 F   0  0  0  0  0  0  0  0  0  0  0  0
    3.4103   -0.9923   -0.2269 F   0  0  0  0  0  0  0  0  0  0  0  0
   -2.7707   -3.5467    0.2842 H   0  0  0  0  0  0  0  0  0  0  0  0
   -3.5875   -1.9126    0.0508 H   0  0  0  0  0  0  0  0  0  0  0  0
   -0.5896   -2.4440    0.2635 H   0  0  0  0  0  0  0  0  0  0  0  0
   -3.3770    2.1059    0.1009 H   0  0  0  0  0  0  0  0  0  0  0  0
   -1.2343    3.3817   -0.1574 H   0  0  0  0  0  0  0  0  0  0  0  0
    0.8704    2.0940   -0.4092 H   0  0  0  0  0  0  0  0  0  0  0  0
    1.0263   -1.5564   -0.8911 H   0  0  0  0  0  0  0  0  0  0  0  0
  1  2  2  0  0  0  0
  2  3  1  0  0  0  0
  3  4  4  0  0  0  0
  4  5  4  0  0  0  0
  5  6  4  0  0  0  0
  6  7  4  0  0  0  0
  3  8  4  0  0  0  0
  7  8  4  0  0  0  0
  8  9  1  0  0  0  0
  9 10  2  0  0  0  0
 10 11  1  0  0  0  0
 10 12  1  0  0  0  0
  1 13  1  0  0  0  0
  1 14  1  0  0  0  0
  2 15  1  0  0  0  0
  5 16  1  0  0  0  0
  6 17  1  0  0  0  0
  7 18  1  0  0  0  0
  9 19  1  0  0  0  0
M  END
