 xtb: 6.5.0 (unknown)
          08112218543D

 26  0  0     0  0            999 V2000
   -4.4835    0.7208   -0.4202 C   0  0  0  0  0  0  0  0  0  0  0  0
   -3.6690   -0.0777    0.2552 C   0  0  0  0  0  0  0  0  0  0  0  0
   -2.2108   -0.1328    0.1392 C   0  0  0  0  0  0  0  0  0  0  0  0
   -1.6194   -1.3968    0.1630 C   0  0  0  0  0  0  0  0  0  0  0  0
   -0.2586   -1.5949    0.0300 C   0  0  0  0  0  0  0  0  0  0  0  0
    0.2989   -2.9868    0.0582 C   0  0  0  0  0  0  0  0  0  0  0  0
    0.5686   -0.4677   -0.1067 C   0  0  0  0  0  0  0  0  0  0  0  0
    2.0063   -0.6408   -0.2618 C   0  0  0  0  0  0  0  0  0  0  0  0
    2.9587    0.2529   -0.0446 C   0  0  0  0  0  0  0  0  0  0  0  0
    2.8325    1.5033    0.3876 F   0  0  0  0  0  0  0  0  0  0  0  0
    4.2552   -0.0075   -0.2268 F   0  0  0  0  0  0  0  0  0  0  0  0
   -0.0160    0.7965   -0.0954 C   0  0  0  0  0  0  0  0  0  0  0  0
   -1.3835    0.9907    0.0233 C   0  0  0  0  0  0  0  0  0  0  0  0
   -1.9056    2.3953    0.0590 C   0  0  0  0  0  0  0  0  0  0  0  0
   -5.5517    0.6687   -0.2916 H   0  0  0  0  0  0  0  0  0  0  0  0
   -4.1273    1.4310   -1.1452 H   0  0  0  0  0  0  0  0  0  0  0  0
   -4.0922   -0.8149    0.9280 H   0  0  0  0  0  0  0  0  0  0  0  0
   -2.2629   -2.2591    0.2736 H   0  0  0  0  0  0  0  0  0  0  0  0
   -0.4937   -3.7067    0.2454 H   0  0  0  0  0  0  0  0  0  0  0  0
    1.0487   -3.0898    0.8412 H   0  0  0  0  0  0  0  0  0  0  0  0
    0.7642   -3.2369   -0.8953 H   0  0  0  0  0  0  0  0  0  0  0  0
    2.3598   -1.6079   -0.5851 H   0  0  0  0  0  0  0  0  0  0  0  0
    0.6118    1.6681   -0.1944 H   0  0  0  0  0  0  0  0  0  0  0  0
   -1.1591    3.0592    0.4899 H   0  0  0  0  0  0  0  0  0  0  0  0
   -2.8186    2.4591    0.6457 H   0  0  0  0  0  0  0  0  0  0  0  0
   -2.1208    2.7492   -0.9492 H   0  0  0  0  0  0  0  0  0  0  0  0
M  END
