
  xtb     02032211353D
 xtb: 6.4.1 (23d549d)
 25 25  0     0  0            999 V2000
   -4.7811    0.2848    0.2053 C   0  0  0  0  0  0  0  0  0  0  0  0
   -3.5459    0.7707    0.1600 C   0  0  0  0  0  0  0  0  0  0  0  0
   -2.3156    0.0002    0.0457 C   0  0  0  0  0  0  0  0  0  0  0  0
   -2.2826   -1.3851   -0.1322 C   0  0  0  0  0  0  0  0  0  0  0  0
   -1.0830   -2.0532   -0.2334 C   0  0  0  0  0  0  0  0  0  0  0  0
    0.1491   -1.3924   -0.1398 C   0  0  0  0  0  0  0  0  0  0  0  0
    1.3565   -2.2114   -0.2132 C   0  0  0  0  0  0  0  0  0  0  0  0
    2.4932   -1.9992    0.4397 C   0  0  0  0  0  0  0  0  0  0  0  0
    0.1092   -0.0071    0.0138 C   0  0  0  0  0  0  0  0  0  0  0  0
    1.5495    1.0806    0.0389 S   0  0  0  0  0  0  0  0  0  0  0  0
    2.5226    0.6073   -1.2293 N   0  0  0  0  0  0  0  0  0  0  0  0
    1.0944    2.3984   -0.2846 O   0  0  0  0  0  0  0  0  0  0  0  0
    2.2949    0.8957    1.2475 O   0  0  0  0  0  0  0  0  0  0  0  0
   -1.0903    0.6665    0.0979 C   0  0  0  0  0  0  0  0  0  0  0  0
   -5.6331    0.9359    0.2957 H   0  0  0  0  0  0  0  0  0  0  0  0
   -4.9976   -0.7689    0.1606 H   0  0  0  0  0  0  0  0  0  0  0  0
   -3.3965    1.8411    0.2202 H   0  0  0  0  0  0  0  0  0  0  0  0
   -3.2029   -1.9434   -0.2020 H   0  0  0  0  0  0  0  0  0  0  0  0
   -1.0826   -3.1250   -0.3725 H   0  0  0  0  0  0  0  0  0  0  0  0
    1.2436   -3.1079   -0.8138 H   0  0  0  0  0  0  0  0  0  0  0  0
    2.6344   -1.1544    1.0917 H   0  0  0  0  0  0  0  0  0  0  0  0
    3.3149   -2.6917    0.3545 H   0  0  0  0  0  0  0  0  0  0  0  0
    2.1102    0.8037   -2.1251 H   0  0  0  0  0  0  0  0  0  0  0  0
    2.8841   -0.3301   -1.1492 H   0  0  0  0  0  0  0  0  0  0  0  0
   -1.0511    1.7404    0.1956 H   0  0  0  0  0  0  0  0  0  0  0  0
  1  2  2  0  0  0  0
  2  3  1  0  0  0  0
  3  4  4  0  0  0  0
  4  5  4  0  0  0  0
  5  6  4  0  0  0  0
  6  7  1  0  0  0  0
  7  8  2  0  0  0  0
  6  9  4  0  0  0  0
  9 10  1  0  0  0  0
 10 11  1  0  0  0  0
 10 12  2  0  0  0  0
 10 13  2  0  0  0  0
  3 14  4  0  0  0  0
  9 14  4  0  0  0  0
  1 15  1  0  0  0  0
  1 16  1  0  0  0  0
  2 17  1  0  0  0  0
  4 18  1  0  0  0  0
  5 19  1  0  0  0  0
  7 20  1  0  0  0  0
  8 21  1  0  0  0  0
  8 22  1  0  0  0  0
 11 23  1  0  0  0  0
 11 24  1  0  0  0  0
 14 25  1  0  0  0  0
M  END
