12

C          1.04860       -0.10460       -0.11080
C          2.54500       -0.03650       -0.01820
C          3.20840        0.65510        0.92500
C          2.55570        1.45640        2.01830
H          0.75690       -0.73800       -0.97470
H          0.62840        0.91230       -0.25990
H          0.62860       -0.55280        0.81420
H          3.12370       -0.58000       -0.75970
H          4.29410        0.63890        0.90280
H          1.44850        1.42760        1.97910
H          2.87980        2.51450        1.93490
H          2.87990        1.05850        3.00220
