
 OpenBabel02012213473D

 12 11  0  0  0  0  0  0  0  0999 V2000
    1.0486   -0.1046   -0.1108 C   0  0  0  0  0  0  0  0  0  0  0  0
    2.5450   -0.0365   -0.0182 C   0  0  0  0  0  0  0  0  0  0  0  0
    3.2084    0.6551    0.9250 C   0  0  0  0  0  0  0  0  0  0  0  0
    2.5557    1.4564    2.0183 C   0  0  0  0  0  0  0  0  0  0  0  0
    0.7569   -0.7380   -0.9747 H   0  0  0  0  0  0  0  0  0  0  0  0
    0.6284    0.9123   -0.2599 H   0  0  0  0  0  0  0  0  0  0  0  0
    0.6286   -0.5528    0.8142 H   0  0  0  0  0  0  0  0  0  0  0  0
    3.1237   -0.5800   -0.7597 H   0  0  0  0  0  0  0  0  0  0  0  0
    4.2941    0.6389    0.9028 H   0  0  0  0  0  0  0  0  0  0  0  0
    1.4485    1.4276    1.9791 H   0  0  0  0  0  0  0  0  0  0  0  0
    2.8798    2.5145    1.9349 H   0  0  0  0  0  0  0  0  0  0  0  0
    2.8799    1.0585    3.0022 H   0  0  0  0  0  0  0  0  0  0  0  0
  1  2  1  0  0  0  0
  1  5  1  0  0  0  0
  1  6  1  0  0  0  0
  1  7  1  0  0  0  0
  2  3  2  0  0  0  0
  2  8  1  0  0  0  0
  3  4  1  0  0  0  0
  3  9  1  0  0  0  0
  4 10  1  0  0  0  0
  4 11  1  0  0  0  0
  4 12  1  0  0  0  0
M  END
