
 OpenBabel02032210503D

 20 20  0  0  0  0  0  0  0  0999 V2000
    2.3253   -1.1342   -0.9558 C   0  0  0  0  0  0  0  0  0  0  0  0
    2.3636   -0.0102   -0.2274 C   0  0  0  0  0  0  0  0  0  0  0  0
    3.0830    1.2129   -0.6149 C   0  0  0  0  0  0  0  0  0  0  0  0
    4.2336    1.1792   -1.4128 C   0  0  0  0  0  0  0  0  0  0  0  0
    4.9029    2.3560   -1.7440 C   0  0  0  0  0  0  0  0  0  0  0  0
    4.4349    3.5814   -1.2713 C   0  0  0  0  0  0  0  0  0  0  0  0
    3.2908    3.6488   -0.4656 C   0  0  0  0  0  0  0  0  0  0  0  0
    2.8743    4.9629    0.0421 C   0  0  0  0  0  0  0  0  0  0  0  0
    1.6285    5.3520    0.3358 C   0  0  0  0  0  0  0  0  0  0  0  0
    0.5723    4.5287    0.1757 F   0  0  0  0  0  0  0  0  0  0  0  0
    1.4258    6.6086    0.7853 F   0  0  0  0  0  0  0  0  0  0  0  0
    2.6346    2.4532   -0.1296 C   0  0  0  0  0  0  0  0  0  0  0  0
    1.7636   -1.9959   -0.6094 H   0  0  0  0  0  0  0  0  0  0  0  0
    2.8272   -1.2299   -1.9127 H   0  0  0  0  0  0  0  0  0  0  0  0
    1.8138    0.0290    0.7106 H   0  0  0  0  0  0  0  0  0  0  0  0
    4.6299    0.2352   -1.7771 H   0  0  0  0  0  0  0  0  0  0  0  0
    5.7923    2.3147   -2.3670 H   0  0  0  0  0  0  0  0  0  0  0  0
    4.9762    4.4857   -1.5433 H   0  0  0  0  0  0  0  0  0  0  0  0
    3.6676    5.6943    0.1742 H   0  0  0  0  0  0  0  0  0  0  0  0
    1.7601    2.4799    0.5175 H   0  0  0  0  0  0  0  0  0  0  0  0
  1  2  2  0  0  0  0
  1 13  1  0  0  0  0
  1 14  1  0  0  0  0
  2  3  1  0  0  0  0
  2 15  1  0  0  0  0
  3  4  1  0  0  0  0
  3 12  2  0  0  0  0
  4  5  2  0  0  0  0
  4 16  1  0  0  0  0
  5  6  1  0  0  0  0
  5 17  1  0  0  0  0
  6  7  2  0  0  0  0
  6 18  1  0  0  0  0
  7  8  1  0  0  0  0
  7 12  1  0  0  0  0
  8  9  2  0  0  0  0
  8 19  1  0  0  0  0
  9 10  1  0  0  0  0
  9 11  1  0  0  0  0
 12 20  1  0  0  0  0
M  END
