18

C          0.97220       -0.08970       -0.01140
C          2.47370       -0.10100       -0.00670
C          3.19020       -1.31180       -0.00530
N          4.55520       -1.31480       -0.00080
C          5.29290       -0.16820        0.00270
C          6.78810       -0.24430        0.00780
C          4.62630        1.06070        0.00140
N          5.24660        2.26840        0.00450
S          3.96940        3.31770        0.00110
N          2.64460        2.32840       -0.00410
C          3.20610        1.09170       -0.00330
H          0.55880       -1.12070       -0.01360
H          0.60510        0.43750       -0.91700
H          0.59960        0.43580        0.89290
H          2.66410       -2.25760       -0.00790
H          7.12430       -1.30290        0.00820
H          7.18670        0.25600        0.91540
H          7.19320        0.25740       -0.89600
