
 OpenBabel02012213453D

 17 17  0  0  0  0  0  0  0  0999 V2000
   -1.9585   -1.4582    0.0002 C   0  0  0  0  0  0  0  0  0  0  0  0
   -0.6654   -0.6975   -0.0008 C   0  0  0  0  0  0  0  0  0  0  0  0
   -0.5504    0.6977   -0.0002 C   0  0  0  0  0  0  0  0  0  0  0  0
   -1.7145    1.6439   -0.0010 C   0  0  0  0  0  0  0  0  0  0  0  0
    0.6575    1.3250    0.0003 N   0  0  0  0  0  0  0  0  0  0  0  0
    1.7736    0.5669    0.0001 C   0  0  0  0  0  0  0  0  0  0  0  0
    1.7584   -0.8114   -0.0013 C   0  0  0  0  0  0  0  0  0  0  0  0
    0.5234   -1.4462   -0.0018 C   0  0  0  0  0  0  0  0  0  0  0  0
   -2.8468   -0.8268    0.0012 H   0  0  0  0  0  0  0  0  0  0  0  0
   -2.0141   -2.0932    0.8912 H   0  0  0  0  0  0  0  0  0  0  0  0
   -2.0159   -2.0934   -0.8904 H   0  0  0  0  0  0  0  0  0  0  0  0
   -2.6900    1.1590    0.0008 H   0  0  0  0  0  0  0  0  0  0  0  0
   -1.6661    2.2798   -0.8911 H   0  0  0  0  0  0  0  0  0  0  0  0
   -1.6647    2.2833    0.8864 H   0  0  0  0  0  0  0  0  0  0  0  0
    2.7081    1.1193    0.0009 H   0  0  0  0  0  0  0  0  0  0  0  0
    2.6821   -1.3777   -0.0019 H   0  0  0  0  0  0  0  0  0  0  0  0
    0.4856   -2.5334   -0.0029 H   0  0  0  0  0  0  0  0  0  0  0  0
  1  2  1  0  0  0  0
  1  9  1  0  0  0  0
  1 10  1  0  0  0  0
  1 11  1  0  0  0  0
  2  3  1  0  0  0  0
  2  8  2  0  0  0  0
  3  4  1  0  0  0  0
  3  5  2  0  0  0  0
  4 12  1  0  0  0  0
  4 13  1  0  0  0  0
  4 14  1  0  0  0  0
  5  6  1  0  0  0  0
  6  7  2  0  0  0  0
  6 15  1  0  0  0  0
  7  8  1  0  0  0  0
  7 16  1  0  0  0  0
  8 17  1  0  0  0  0
M  END
