
  xtb     02012213453D
 xtb: 6.4.1 (23d549d)
 17 17  0     0  0            999 V2000
   -1.9556   -1.4639   -0.0002 c   0  0  0  0  0  0  0  0  0  0  0  0
   -0.6603   -0.7064   -0.0007 c   0  0  0  0  0  0  0  0  0  0  0  0
   -0.5447    0.6878   -0.0008 c   0  0  0  0  0  0  0  0  0  0  0  0
   -1.7014    1.6437   -0.0004 c   0  0  0  0  0  0  0  0  0  0  0  0
    0.6397    1.2929   -0.0013 n   0  0  0  0  0  0  0  0  0  0  0  0
    1.7466    0.5799   -0.0017 c   0  0  0  0  0  0  0  0  0  0  0  0
    1.7481   -0.8061   -0.0017 c   0  0  0  0  0  0  0  0  0  0  0  0
    0.5222   -1.4436   -0.0012 c   0  0  0  0  0  0  0  0  0  0  0  0
   -2.8240   -0.8146    0.0005 h   0  0  0  0  0  0  0  0  0  0  0  0
   -2.0068   -2.1045    0.8799 h   0  0  0  0  0  0  0  0  0  0  0  0
   -2.0078   -2.1041   -0.8805 h   0  0  0  0  0  0  0  0  0  0  0  0
   -2.6657    1.1489    0.0003 h   0  0  0  0  0  0  0  0  0  0  0  0
   -1.6320    2.2841   -0.8775 h   0  0  0  0  0  0  0  0  0  0  0  0
   -1.6309    2.2847    0.8762 h   0  0  0  0  0  0  0  0  0  0  0  0
    2.6684    1.1474   -0.0021 h   0  0  0  0  0  0  0  0  0  0  0  0
    2.6713   -1.3646   -0.0021 h   0  0  0  0  0  0  0  0  0  0  0  0
    0.4695   -2.5242   -0.0012 h   0  0  0  0  0  0  0  0  0  0  0  0
  1  2  1  0  0  0  0
  2  3  4  0  0  0  0
  3  4  1  0  0  0  0
  3  5  4  0  0  0  0
  5  6  4  0  0  0  0
  6  7  4  0  0  0  0
  2  8  4  0  0  0  0
  7  8  4  0  0  0  0
  1  9  1  0  0  0  0
  1 10  1  0  0  0  0
  1 11  1  0  0  0  0
  4 12  1  0  0  0  0
  4 13  1  0  0  0  0
  4 14  1  0  0  0  0
  6 15  1  0  0  0  0
  7 16  1  0  0  0  0
  8 17  1  0  0  0  0
M  END
