
 OpenBabel02032211253D

 22 22  0  0  0  0  0  0  0  0999 V2000
    2.6258    0.9156    0.8054 C   0  0  0  0  0  0  0  0  0  0  0  0
    2.3374   -0.0548   -0.0688 C   0  0  0  0  0  0  0  0  0  0  0  0
    3.0398   -1.3588   -0.0755 C   0  0  0  0  0  0  0  0  0  0  0  0
    2.6927   -2.3345   -1.0127 C   0  0  0  0  0  0  0  0  0  0  0  0
    3.3434   -3.5894   -1.0269 C   0  0  0  0  0  0  0  0  0  0  0  0
    2.8823   -4.6477   -1.9841 C   0  0  0  0  0  0  0  0  0  0  0  0
    2.0905   -4.4378   -3.0467 C   0  0  0  0  0  0  0  0  0  0  0  0
    4.3778   -3.8268   -0.0657 C   0  0  0  0  0  0  0  0  0  0  0  0
    5.2097   -5.0757    0.0256 C   0  0  0  0  0  0  0  0  0  0  0  0
    5.7852   -5.3324    1.0726 O   0  0  0  0  0  0  0  0  0  0  0  0
    5.4581   -5.8789   -1.0329 O   0  0  0  0  0  0  0  0  0  0  0  0
    4.6648   -2.8077    0.8657 C   0  0  0  0  0  0  0  0  0  0  0  0
    4.0066   -1.6241    0.8360 N   0  0  0  0  0  0  0  0  0  0  0  0
    2.0817    1.8539    0.7694 H   0  0  0  0  0  0  0  0  0  0  0  0
    3.3978    0.7929    1.5587 H   0  0  0  0  0  0  0  0  0  0  0  0
    1.5547    0.1275   -0.8000 H   0  0  0  0  0  0  0  0  0  0  0  0
    1.8949   -2.1041   -1.7022 H   0  0  0  0  0  0  0  0  0  0  0  0
    3.1719   -5.6754   -1.8221 H   0  0  0  0  0  0  0  0  0  0  0  0
    1.7240   -3.4621   -3.3350 H   0  0  0  0  0  0  0  0  0  0  0  0
    1.8044   -5.2778   -3.6717 H   0  0  0  0  0  0  0  0  0  0  0  0
    5.2702   -5.6338   -1.9469 H   0  0  0  0  0  0  0  0  0  0  0  0
    5.4388   -2.9393    1.6110 H   0  0  0  0  0  0  0  0  0  0  0  0
  1  2  2  0  0  0  0
  1 14  1  0  0  0  0
  1 15  1  0  0  0  0
  2  3  1  0  0  0  0
  2 16  1  0  0  0  0
  3  4  1  0  0  0  0
  3 13  2  0  0  0  0
  4  5  2  0  0  0  0
  4 17  1  0  0  0  0
  5  6  1  0  0  0  0
  5  8  1  0  0  0  0
  6  7  2  0  0  0  0
  6 18  1  0  0  0  0
  7 19  1  0  0  0  0
  7 20  1  0  0  0  0
  8  9  1  0  0  0  0
  8 12  2  0  0  0  0
  9 10  2  0  0  0  0
  9 11  1  0  0  0  0
 11 21  1  0  0  0  0
 12 13  1  0  0  0  0
 12 22  1  0  0  0  0
M  END
