
 OpenBabel02012214093D

 17 17  0  0  0  0  0  0  0  0999 V2000
    1.0758    0.0450   -0.0408 C   0  0  0  0  0  0  0  0  0  0  0  0
    2.5754    0.0771   -0.0380 C   0  0  0  0  0  0  0  0  0  0  0  0
    3.2730    1.2926   -0.0371 C   0  0  0  0  0  0  0  0  0  0  0  0
    4.6318    1.2997   -0.0346 N   0  0  0  0  0  0  0  0  0  0  0  0
    5.3580    0.1504   -0.0326 C   0  0  0  0  0  0  0  0  0  0  0  0
    6.7124    0.2261   -0.0300 F   0  0  0  0  0  0  0  0  0  0  0  0
    4.7052   -1.0940   -0.0333 C   0  0  0  0  0  0  0  0  0  0  0  0
    5.4701   -2.3865   -0.0311 C   0  0  0  0  0  0  0  0  0  0  0  0
    3.3038   -1.1192   -0.0360 C   0  0  0  0  0  0  0  0  0  0  0  0
    0.6470    1.0697   -0.0419 H   0  0  0  0  0  0  0  0  0  0  0  0
    0.7122   -0.4873    0.8634 H   0  0  0  0  0  0  0  0  0  0  0  0
    0.7157   -0.4879   -0.9459 H   0  0  0  0  0  0  0  0  0  0  0  0
    2.7397    2.2345   -0.0387 H   0  0  0  0  0  0  0  0  0  0  0  0
    6.5674   -2.2201   -0.0290 H   0  0  0  0  0  0  0  0  0  0  0  0
    5.2087   -2.9751   -0.9357 H   0  0  0  0  0  0  0  0  0  0  0  0
    5.2050   -2.9743    0.8728 H   0  0  0  0  0  0  0  0  0  0  0  0
    2.7808   -2.0686   -0.0365 H   0  0  0  0  0  0  0  0  0  0  0  0
  1  2  1  0  0  0  0
  1 10  1  0  0  0  0
  1 11  1  0  0  0  0
  1 12  1  0  0  0  0
  2  3  1  0  0  0  0
  2  9  2  0  0  0  0
  3  4  2  0  0  0  0
  3 13  1  0  0  0  0
  4  5  1  0  0  0  0
  5  6  1  0  0  0  0
  5  7  2  0  0  0  0
  7  8  1  0  0  0  0
  7  9  1  0  0  0  0
  8 14  1  0  0  0  0
  8 15  1  0  0  0  0
  8 16  1  0  0  0  0
  9 17  1  0  0  0  0
M  END
