28

C          2.43480        0.14940       -0.51340
C          0.96670        0.04010       -0.17900
C          0.28320       -1.19300        0.05680
C          0.97290       -2.52450        0.11170
C          2.32576       -2.69505        0.54109
C          3.18843       -1.58750        1.09688
C          2.90681       -3.97517        0.49876
C          2.18260       -5.07697        0.04934
C          0.86550       -4.92013       -0.36801
C          0.26821       -3.66060       -0.34122
C         -1.10430       -1.14920        0.31150
C         -1.79950        0.05950        0.32900
C         -1.12690        1.25460        0.10070
C          0.24340        1.24630       -0.15000
H          2.94550       -0.82190       -0.63210
H          2.95480        0.74010        0.26990
H          2.54710        0.67200       -1.48710
H          2.66595       -0.62229        1.21421
H          4.07727       -1.44288        0.44711
H          3.53276       -1.87180        2.11372
H          3.92882       -4.12220        0.82743
H          2.64455       -6.05560        0.02561
H          0.30625       -5.77629       -0.72304
H         -0.74899       -3.57162       -0.70154
H         -1.65580       -2.05690        0.52260
H         -2.86320        0.06840        0.53010
H         -1.66850        2.19180        0.11710
H          0.74540        2.18880       -0.33390
28

C          2.43480        0.14940       -0.51340
C          0.96670        0.04010       -0.17900
C          0.28320       -1.19300        0.05680
C          0.97290       -2.52450        0.11170
C          0.51580       -3.61729        0.91204
C         -0.76793       -3.61169        1.70689
C          1.26460       -4.80734        0.94708
C          2.44020       -4.93686        0.21116
C          2.89064       -3.87953       -0.57159
C          2.16962       -2.68714       -0.61897
C         -1.10430       -1.14920        0.31150
C         -1.79950        0.05950        0.32900
C         -1.12690        1.25460        0.10070
C          0.24340        1.24630       -0.15000
H          2.94550       -0.82190       -0.63210
H          2.95480        0.74010        0.26990
H          2.54710        0.67200       -1.48710
H         -1.38056       -2.70362        1.57098
H         -0.54079       -3.73853        2.78646
H         -1.40380       -4.45936        1.37448
H          0.92779       -5.64718        1.54320
H          3.00298       -5.86078        0.24773
H          3.80782       -3.97962       -1.13776
H          2.56641       -1.87549       -1.21579
H         -1.65580       -2.05690        0.52260
H         -2.86320        0.06840        0.53010
H         -1.66850        2.19180        0.11710
H          0.74540        2.18880       -0.33390
28

C          2.43480        0.14940       -0.51340
C          0.96670        0.04010       -0.17900
C          0.28320       -1.19300        0.05680
C          0.97290       -2.52450        0.11170
C          0.34992       -3.75210       -0.27375
C         -1.02634       -3.85248       -0.88662
C          1.05614       -4.95964       -0.12799
C          2.35250       -4.97527        0.38153
C          2.96655       -3.78544        0.75676
C          2.28580       -2.57556        0.62758
C         -1.10430       -1.14920        0.31150
C         -1.79950        0.05950        0.32900
C         -1.12690        1.25460        0.10070
C          0.24340        1.24630       -0.15000
H          2.94550       -0.82190       -0.63210
H          2.95480        0.74010        0.26990
H          2.54710        0.67200       -1.48710
H         -1.50630       -2.87821       -1.08362
H         -1.68641       -4.45626       -0.22867
H         -0.94807       -4.35718       -1.87278
H          0.60054       -5.89773       -0.42217
H          2.88253       -5.91340        0.48476
H          3.97161       -3.80010        1.15855
H          2.78454       -1.67289        0.95753
H         -1.65580       -2.05690        0.52260
H         -2.86320        0.06840        0.53010
H         -1.66850        2.19180        0.11710
H          0.74540        2.18880       -0.33390
