
 OpenBabel02032211013D

 21 22  0  0  0  0  0  0  0  0999 V2000
    1.0882   -0.5924    0.0713 C   0  0  0  0  0  0  0  0  0  0  0  0
    2.1941    0.1570   -0.0362 C   0  0  0  0  0  0  0  0  0  0  0  0
    2.8627    0.8657    1.0959 C   0  0  0  0  0  0  0  0  0  0  0  0
    2.3922    0.8003    2.4232 C   0  0  0  0  0  0  0  0  0  0  0  0
    3.0353    1.4806    3.4707 C   0  0  0  0  0  0  0  0  0  0  0  0
    2.4986    1.3454    4.7059 F   0  0  0  0  0  0  0  0  0  0  0  0
    4.1924    2.2669    3.2333 C   0  0  0  0  0  0  0  0  0  0  0  0
    4.9312    3.0274    4.2943 C   0  0  0  0  0  0  0  0  0  0  0  0
    4.6026    3.1157    5.5907 C   0  0  0  0  0  0  0  0  0  0  0  0
    4.6681    2.3306    1.9097 C   0  0  0  0  0  0  0  0  0  0  0  0
    5.7657    3.0447    1.5413 N   0  0  0  0  0  0  0  0  0  0  0  0
    5.8515    2.7694   -0.0834 S   0  0  0  0  0  0  0  0  0  0  0  0
    4.5642    1.7815   -0.3810 N   0  0  0  0  0  0  0  0  0  0  0  0
    4.0086    1.6365    0.8517 C   0  0  0  0  0  0  0  0  0  0  0  0
    0.6769   -1.0655   -0.8147 H   0  0  0  0  0  0  0  0  0  0  0  0
    0.5708   -0.7542    1.0070 H   0  0  0  0  0  0  0  0  0  0  0  0
    2.6237    0.2492   -1.0298 H   0  0  0  0  0  0  0  0  0  0  0  0
    1.5175    0.2214    2.6772 H   0  0  0  0  0  0  0  0  0  0  0  0
    5.8225    3.5731    3.9988 H   0  0  0  0  0  0  0  0  0  0  0  0
    3.7448    2.6382    6.0343 H   0  0  0  0  0  0  0  0  0  0  0  0
    5.2265    3.7066    6.2541 H   0  0  0  0  0  0  0  0  0  0  0  0
  1  2  2  0  0  0  0
  1 15  1  0  0  0  0
  1 16  1  0  0  0  0
  2  3  1  0  0  0  0
  2 17  1  0  0  0  0
  3  4  2  0  0  0  0
  3 14  1  0  0  0  0
  4  5  1  0  0  0  0
  4 18  1  0  0  0  0
  5  6  1  0  0  0  0
  5  7  2  0  0  0  0
  7  8  1  0  0  0  0
  7 10  1  0  0  0  0
  8  9  2  0  0  0  0
  8 19  1  0  0  0  0
  9 20  1  0  0  0  0
  9 21  1  0  0  0  0
 10 11  2  0  0  0  0
 10 14  1  0  0  0  0
 11 12  1  0  0  0  0
 12 13  1  0  0  0  0
 13 14  2  0  0  0  0
M  END
