
  xtb     02032211353D
 xtb: 6.4.1 (23d549d)
 25 25  0     0  0            999 V2000
   -4.1509   -0.0894   -0.1136 C   0  0  0  0  0  0  0  0  0  0  0  0
   -3.0477    0.6469   -0.0347 C   0  0  0  0  0  0  0  0  0  0  0  0
   -1.6750    0.1675   -0.0084 C   0  0  0  0  0  0  0  0  0  0  0  0
   -1.3314   -1.1855   -0.0323 C   0  0  0  0  0  0  0  0  0  0  0  0
   -0.0147   -1.5857   -0.0040 C   0  0  0  0  0  0  0  0  0  0  0  0
    1.0291   -0.6562    0.0458 C   0  0  0  0  0  0  0  0  0  0  0  0
    2.3401   -1.0528   -0.0286 N   0  0  0  0  0  0  0  0  0  0  0  0
    2.7637   -2.4152    0.1694 C   0  0  0  0  0  0  0  0  0  0  0  0
    0.7016    0.7177    0.0901 C   0  0  0  0  0  0  0  0  0  0  0  0
    1.7384    1.7429    0.2057 C   0  0  0  0  0  0  0  0  0  0  0  0
    1.6872    2.9427   -0.3571 C   0  0  0  0  0  0  0  0  0  0  0  0
   -0.6340    1.0915    0.0570 C   0  0  0  0  0  0  0  0  0  0  0  0
   -5.1271    0.3645   -0.1280 H   0  0  0  0  0  0  0  0  0  0  0  0
   -4.1324   -1.1643   -0.1681 H   0  0  0  0  0  0  0  0  0  0  0  0
   -3.1451    1.7255    0.0140 H   0  0  0  0  0  0  0  0  0  0  0  0
   -2.1035   -1.9382   -0.0692 H   0  0  0  0  0  0  0  0  0  0  0  0
    0.2111   -2.6401   -0.0243 H   0  0  0  0  0  0  0  0  0  0  0  0
    3.0206   -0.3472    0.2006 H   0  0  0  0  0  0  0  0  0  0  0  0
    2.3569   -3.0528   -0.6179 H   0  0  0  0  0  0  0  0  0  0  0  0
    2.4493   -2.8171    1.1408 H   0  0  0  0  0  0  0  0  0  0  0  0
    3.8493   -2.4558    0.1108 H   0  0  0  0  0  0  0  0  0  0  0  0
    2.5970    1.4942    0.8219 H   0  0  0  0  0  0  0  0  0  0  0  0
    0.8712    3.2369   -0.9950 H   0  0  0  0  0  0  0  0  0  0  0  0
    2.4668    3.6712   -0.2123 H   0  0  0  0  0  0  0  0  0  0  0  0
   -0.8722    2.1444    0.1107 H   0  0  0  0  0  0  0  0  0  0  0  0
  1  2  2  0  0  0  0
  2  3  1  0  0  0  0
  3  4  4  0  0  0  0
  4  5  4  0  0  0  0
  5  6  4  0  0  0  0
  6  7  1  0  0  0  0
  7  8  1  0  0  0  0
  6  9  4  0  0  0  0
  9 10  1  0  0  0  0
 10 11  2  0  0  0  0
  3 12  4  0  0  0  0
  9 12  4  0  0  0  0
  1 13  1  0  0  0  0
  1 14  1  0  0  0  0
  2 15  1  0  0  0  0
  4 16  1  0  0  0  0
  5 17  1  0  0  0  0
  7 18  1  0  0  0  0
  8 19  1  0  0  0  0
  8 20  1  0  0  0  0
  8 21  1  0  0  0  0
 10 22  1  0  0  0  0
 11 23  1  0  0  0  0
 11 24  1  0  0  0  0
 12 25  1  0  0  0  0
M  END
