
 OpenBabel02032211093D

 17 17  0  0  0  0  0  0  0  0999 V2000
    1.2609    0.8756    0.4970 C   0  0  0  0  0  0  0  0  0  0  0  0
    2.3339    0.1943    0.0710 C   0  0  0  0  0  0  0  0  0  0  0  0
    3.1251    0.5168   -1.0790 C   0  0  0  0  0  0  0  0  0  0  0  0
    2.9124    1.5960   -1.9796 C   0  0  0  0  0  0  0  0  0  0  0  0
    3.9096    1.5184   -2.9135 C   0  0  0  0  0  0  0  0  0  0  0  0
    4.7157    0.4669   -2.6533 O   0  0  0  0  0  0  0  0  0  0  0  0
    4.2577   -0.1810   -1.5199 C   0  0  0  0  0  0  0  0  0  0  0  0
    4.9032   -1.3381   -0.9900 C   0  0  0  0  0  0  0  0  0  0  0  0
    5.9951   -1.8515   -1.5725 C   0  0  0  0  0  0  0  0  0  0  0  0
    0.7212    0.5589    1.3842 H   0  0  0  0  0  0  0  0  0  0  0  0
    0.8884    1.7579   -0.0117 H   0  0  0  0  0  0  0  0  0  0  0  0
    2.6237   -0.6762    0.6572 H   0  0  0  0  0  0  0  0  0  0  0  0
    2.1322    2.3424   -1.9552 H   0  0  0  0  0  0  0  0  0  0  0  0
    4.1705    2.1059   -3.7825 H   0  0  0  0  0  0  0  0  0  0  0  0
    4.5027   -1.8115   -0.1003 H   0  0  0  0  0  0  0  0  0  0  0  0
    6.4335   -1.4136   -2.4646 H   0  0  0  0  0  0  0  0  0  0  0  0
    6.4795   -2.7319   -1.1643 H   0  0  0  0  0  0  0  0  0  0  0  0
  1  2  2  0  0  0  0
  1 10  1  0  0  0  0
  1 11  1  0  0  0  0
  2  3  1  0  0  0  0
  2 12  1  0  0  0  0
  3  4  1  0  0  0  0
  3  7  2  0  0  0  0
  4  5  2  0  0  0  0
  4 13  1  0  0  0  0
  5  6  1  0  0  0  0
  5 14  1  0  0  0  0
  6  7  1  0  0  0  0
  7  8  1  0  0  0  0
  8  9  2  0  0  0  0
  8 15  1  0  0  0  0
  9 16  1  0  0  0  0
  9 17  1  0  0  0  0
M  END
