
 OpenBabel02032210583D

 23 24  0  0  0  0  0  0  0  0999 V2000
    1.1593   -0.3677   -0.4141 C   0  0  0  0  0  0  0  0  0  0  0  0
    2.2821    0.1680    0.0767 C   0  0  0  0  0  0  0  0  0  0  0  0
    2.9893   -0.3281    1.2781 C   0  0  0  0  0  0  0  0  0  0  0  0
    4.3914    0.3854    1.8879 S   0  0  0  0  0  0  0  0  0  0  0  0
    4.6143   -0.6455    3.2050 C   0  0  0  0  0  0  0  0  0  0  0  0
    5.7385   -0.5140    4.1582 C   0  0  0  0  0  0  0  0  0  0  0  0
    5.9331   -1.3144    5.2117 C   0  0  0  0  0  0  0  0  0  0  0  0
    3.5801   -1.5811    3.1718 C   0  0  0  0  0  0  0  0  0  0  0  0
    2.6747   -1.3962    2.1184 C   0  0  0  0  0  0  0  0  0  0  0  0
    1.6121   -2.2291    1.9970 O   0  0  0  0  0  0  0  0  0  0  0  0
    1.2514   -3.0470    3.0622 C   0  0  0  0  0  0  0  0  0  0  0  0
    2.5196   -3.6353    3.7128 C   0  0  0  0  0  0  0  0  0  0  0  0
    3.3942   -2.6050    4.0404 O   0  0  0  0  0  0  0  0  0  0  0  0
    0.7057    0.0619   -1.3016 H   0  0  0  0  0  0  0  0  0  0  0  0
    0.6723   -1.2205    0.0380 H   0  0  0  0  0  0  0  0  0  0  0  0
    2.7047    1.0257   -0.4383 H   0  0  0  0  0  0  0  0  0  0  0  0
    6.4505    0.2885    3.9898 H   0  0  0  0  0  0  0  0  0  0  0  0
    5.2713   -2.1346    5.4527 H   0  0  0  0  0  0  0  0  0  0  0  0
    6.7855   -1.1446    5.8617 H   0  0  0  0  0  0  0  0  0  0  0  0
    0.5601   -3.8446    2.7187 H   0  0  0  0  0  0  0  0  0  0  0  0
    0.7280   -2.4281    3.8236 H   0  0  0  0  0  0  0  0  0  0  0  0
    3.0141   -4.2974    2.9685 H   0  0  0  0  0  0  0  0  0  0  0  0
    2.2768   -4.2362    4.6140 H   0  0  0  0  0  0  0  0  0  0  0  0
  1  2  2  0  0  0  0
  1 14  1  0  0  0  0
  1 15  1  0  0  0  0
  2  3  1  0  0  0  0
  2 16  1  0  0  0  0
  3  4  1  0  0  0  0
  3  9  2  0  0  0  0
  4  5  1  0  0  0  0
  5  6  1  0  0  0  0
  5  8  2  0  0  0  0
  6  7  2  0  0  0  0
  6 17  1  0  0  0  0
  7 18  1  0  0  0  0
  7 19  1  0  0  0  0
  8  9  1  0  0  0  0
  8 13  1  0  0  0  0
  9 10  1  0  0  0  0
 10 11  1  0  0  0  0
 11 12  1  0  0  0  0
 11 20  1  0  0  0  0
 11 21  1  0  0  0  0
 12 13  1  0  0  0  0
 12 22  1  0  0  0  0
 12 23  1  0  0  0  0
M  END
