
 OpenBabel02032211223D

 26 26  0  0  0  0  0  0  0  0999 V2000
    1.8531    1.1578    0.3764 C   0  0  0  0  0  0  0  0  0  0  0  0
    1.8521   -0.1652    0.1569 C   0  0  0  0  0  0  0  0  0  0  0  0
    2.7175   -1.1660    0.8652 C   0  0  0  0  0  0  0  0  0  0  0  0
    3.6798   -0.7812    1.8181 C   0  0  0  0  0  0  0  0  0  0  0  0
    4.4962   -1.7211    2.4909 C   0  0  0  0  0  0  0  0  0  0  0  0
    5.5548   -1.2416    3.4447 C   0  0  0  0  0  0  0  0  0  0  0  0
    5.7318    0.0258    3.8513 C   0  0  0  0  0  0  0  0  0  0  0  0
    4.2947   -3.1033    2.1820 C   0  0  0  0  0  0  0  0  0  0  0  0
    4.9779   -4.2035    2.7977 N   0  0  0  0  0  0  0  0  0  0  0  0
    5.4533   -4.1928    4.1047 N   0  0  0  0  0  0  0  0  0  0  0  0
    3.3736   -3.4323    1.2385 N   0  0  0  0  0  0  0  0  0  0  0  0
    2.5953   -2.5399    0.5802 C   0  0  0  0  0  0  0  0  0  0  0  0
    1.6212   -3.0735   -0.4311 C   0  0  0  0  0  0  0  0  0  0  0  0
    1.1788    1.7907   -0.1923 H   0  0  0  0  0  0  0  0  0  0  0  0
    2.4896    1.6459    1.1008 H   0  0  0  0  0  0  0  0  0  0  0  0
    1.1531   -0.5152   -0.5945 H   0  0  0  0  0  0  0  0  0  0  0  0
    3.8037    0.2622    2.0204 H   0  0  0  0  0  0  0  0  0  0  0  0
    6.2731   -1.9309    3.8443 H   0  0  0  0  0  0  0  0  0  0  0  0
    5.1098    0.8545    3.5468 H   0  0  0  0  0  0  0  0  0  0  0  0
    6.5443    0.2545    4.5344 H   0  0  0  0  0  0  0  0  0  0  0  0
    4.7515   -5.1343    2.4166 H   0  0  0  0  0  0  0  0  0  0  0  0
    4.9063   -3.5257    4.6962 H   0  0  0  0  0  0  0  0  0  0  0  0
    6.4856   -4.0366    4.1024 H   0  0  0  0  0  0  0  0  0  0  0  0
    1.6905   -4.1805   -0.4953 H   0  0  0  0  0  0  0  0  0  0  0  0
    1.8481   -2.6543   -1.4340 H   0  0  0  0  0  0  0  0  0  0  0  0
    0.5841   -2.8072   -0.1377 H   0  0  0  0  0  0  0  0  0  0  0  0
  1  2  2  0  0  0  0
  1 14  1  0  0  0  0
  1 15  1  0  0  0  0
  2  3  1  0  0  0  0
  2 16  1  0  0  0  0
  3  4  1  0  0  0  0
  3 12  2  0  0  0  0
  4  5  2  0  0  0  0
  4 17  1  0  0  0  0
  5  6  1  0  0  0  0
  5  8  1  0  0  0  0
  6  7  2  0  0  0  0
  6 18  1  0  0  0  0
  7 19  1  0  0  0  0
  7 20  1  0  0  0  0
  8  9  1  0  0  0  0
  8 11  2  0  0  0  0
  9 10  1  0  0  0  0
  9 21  1  0  0  0  0
 10 22  1  0  0  0  0
 10 23  1  0  0  0  0
 11 12  1  0  0  0  0
 12 13  1  0  0  0  0
 13 24  1  0  0  0  0
 13 25  1  0  0  0  0
 13 26  1  0  0  0  0
M  END
