  29

 C          2.8042500000        0.8656000000        0.8297300000
 C          2.2766000000       -0.1483000000        0.1338000000
 C          3.0336000000       -1.3021000000       -0.3751000000
 C          2.6707000000       -1.9838000000       -1.5469000000
 C          3.4349000000       -3.0534000000       -2.0393000000
 C          3.1076000000       -3.7463000000       -3.2939000000
 C          2.0841500000       -3.4722100000       -4.1093200000
 F          1.1997600000       -2.4921000000       -3.8311500000
 F          1.9276200000       -4.2050800000       -5.2324800000
 C          4.6079000000       -3.4100000000       -1.3611000000
 C          5.0038000000       -2.7164000000       -0.2091000000
 C          6.3080000000       -2.9610000000        0.4598000000
 O          7.3103500000       -3.3280900000       -0.1287100000
 O          6.1573700000       -2.8686900000        1.8052400000
 C          7.3582400000       -2.5862300000        2.5342100000
 C          7.6141100000       -1.0922500000        2.4388200000
 C          4.2083000000       -1.6752000000        0.2849000000
 H          2.1747600000        1.6832900000        1.1672000000
 H          3.8589200000        0.9265800000        1.0729000000
 H          1.2137600000       -0.1315700000       -0.0962600000
 H          1.7940000000       -1.6530000000       -2.0985000000
 H          3.7636500000       -4.5661400000       -3.5740700000
 H          5.2288000000       -4.2136000000       -1.7514000000
 H          8.1737700000       -3.1395300000        2.0580400000
 H          7.2984200000       -2.9184200000        3.5765800000
 H          7.6979400000       -0.7891600000        1.3892100000
 H          8.5295200000       -0.8106900000        2.9640700000
 H          6.7759500000       -0.5260500000        2.8596000000
 H          4.5272000000       -1.1352000000        1.1755000000
