
  xtb     02032211353D
 xtb: 6.4.1 (23d549d)
 37 39  0     0  0            999 V2000
    5.9090    0.5579    0.0034 C   0  0  0  0  0  0  0  0  0  0  0  0
    4.8621   -0.2596   -0.0073 C   0  0  0  0  0  0  0  0  0  0  0  0
    3.4547    0.1147   -0.0050 C   0  0  0  0  0  0  0  0  0  0  0  0
    3.0253    1.4450   -0.0078 C   0  0  0  0  0  0  0  0  0  0  0  0
    1.6832    1.7716   -0.0061 C   0  0  0  0  0  0  0  0  0  0  0  0
    0.7434    0.7520   -0.0015 C   0  0  0  0  0  0  0  0  0  0  0  0
    1.1574   -0.5889    0.0014 C   0  0  0  0  0  0  0  0  0  0  0  0
    2.4945   -0.9055   -0.0006 C   0  0  0  0  0  0  0  0  0  0  0  0
   -0.0369   -1.5175    0.0059 C   0  0  0  0  0  0  0  0  0  0  0  0
   -0.0568   -2.3855    1.2678 C   0  0  0  0  0  0  0  0  0  0  0  0
   -0.0593   -2.3951   -1.2491 C   0  0  0  0  0  0  0  0  0  0  0  0
   -1.1847   -0.5320    0.0039 C   0  0  0  0  0  0  0  0  0  0  0  0
   -2.5355   -0.7833    0.0058 C   0  0  0  0  0  0  0  0  0  0  0  0
   -3.4450    0.2823    0.0031 C   0  0  0  0  0  0  0  0  0  0  0  0
   -4.8690   -0.0232    0.0040 C   0  0  0  0  0  0  0  0  0  0  0  0
   -5.8749    0.8441   -0.0182 C   0  0  0  0  0  0  0  0  0  0  0  0
   -2.9516    1.5902    0.0002 C   0  0  0  0  0  0  0  0  0  0  0  0
   -1.5952    1.8512   -0.0013 C   0  0  0  0  0  0  0  0  0  0  0  0
   -0.7060    0.7872    0.0001 C   0  0  0  0  0  0  0  0  0  0  0  0
    6.9157    0.1762    0.0008 H   0  0  0  0  0  0  0  0  0  0  0  0
    5.8145    1.6300    0.0157 H   0  0  0  0  0  0  0  0  0  0  0  0
    5.0397   -1.3288   -0.0177 H   0  0  0  0  0  0  0  0  0  0  0  0
    3.7565    2.2384   -0.0124 H   0  0  0  0  0  0  0  0  0  0  0  0
    1.3728    2.8062   -0.0087 H   0  0  0  0  0  0  0  0  0  0  0  0
    2.8171   -1.9377    0.0013 H   0  0  0  0  0  0  0  0  0  0  0  0
    0.8118   -3.0396    1.2906 H   0  0  0  0  0  0  0  0  0  0  0  0
   -0.9549   -2.9986    1.2908 H   0  0  0  0  0  0  0  0  0  0  0  0
   -0.0421   -1.7574    2.1561 H   0  0  0  0  0  0  0  0  0  0  0  0
    0.8079   -3.0513   -1.2672 H   0  0  0  0  0  0  0  0  0  0  0  0
   -0.0436   -1.7739   -2.1423 H   0  0  0  0  0  0  0  0  0  0  0  0
   -0.9586   -3.0064   -1.2670 H   0  0  0  0  0  0  0  0  0  0  0  0
   -2.9079   -1.7986    0.0087 H   0  0  0  0  0  0  0  0  0  0  0  0
   -5.0984   -1.0824    0.0236 H   0  0  0  0  0  0  0  0  0  0  0  0
   -5.7283    1.9101   -0.0403 H   0  0  0  0  0  0  0  0  0  0  0  0
   -6.8990    0.5117   -0.0156 H   0  0  0  0  0  0  0  0  0  0  0  0
   -3.6434    2.4182    0.0002 H   0  0  0  0  0  0  0  0  0  0  0  0
   -1.2349    2.8695   -0.0033 H   0  0  0  0  0  0  0  0  0  0  0  0
  1  2  2  0  0  0  0
  2  3  1  0  0  0  0
  3  4  4  0  0  0  0
  4  5  4  0  0  0  0
  5  6  4  0  0  0  0
  6  7  4  0  0  0  0
  3  8  4  0  0  0  0
  7  8  4  0  0  0  0
  7  9  1  0  0  0  0
  9 10  1  0  0  0  0
  9 11  1  0  0  0  0
  9 12  1  0  0  0  0
 12 13  4  0  0  0  0
 13 14  4  0  0  0  0
 14 15  1  0  0  0  0
 15 16  2  0  0  0  0
 14 17  4  0  0  0  0
 17 18  4  0  0  0  0
  6 19  1  0  0  0  0
 12 19  4  0  0  0  0
 18 19  4  0  0  0  0
  1 20  1  0  0  0  0
  1 21  1  0  0  0  0
  2 22  1  0  0  0  0
  4 23  1  0  0  0  0
  5 24  1  0  0  0  0
  8 25  1  0  0  0  0
 10 26  1  0  0  0  0
 10 27  1  0  0  0  0
 10 28  1  0  0  0  0
 11 29  1  0  0  0  0
 11 30  1  0  0  0  0
 11 31  1  0  0  0  0
 13 32  1  0  0  0  0
 15 33  1  0  0  0  0
 16 34  1  0  0  0  0
 16 35  1  0  0  0  0
 17 36  1  0  0  0  0
 18 37  1  0  0  0  0
M  END
