
  xtb     02032211353D
 xtb: 6.4.1 (23d549d)
 25 25  0     0  0            999 V2000
    2.3353   -3.2698   -0.3390 C   0  0  0  0  0  0  0  0  0  0  0  0
    1.0783   -2.8535   -0.2355 C   0  0  0  0  0  0  0  0  0  0  0  0
    0.5903   -1.4859   -0.1082 C   0  0  0  0  0  0  0  0  0  0  0  0
   -0.7828   -1.2635   -0.1608 C   0  0  0  0  0  0  0  0  0  0  0  0
   -1.3444    0.0003   -0.0438 C   0  0  0  0  0  0  0  0  0  0  0  0
   -2.8306    0.0763   -0.0537 C   0  0  0  0  0  0  0  0  0  0  0  0
   -3.5271   -0.6613   -0.6942 O   0  0  0  0  0  0  0  0  0  0  0  0
   -3.3817    1.0204    0.7414 O   0  0  0  0  0  0  0  0  0  0  0  0
   -0.5152    1.1279    0.0754 C   0  0  0  0  0  0  0  0  0  0  0  0
   -1.0399    2.4088    0.1256 N   0  0  0  0  0  0  0  0  0  0  0  0
    0.8770    0.9391    0.1648 C   0  0  0  0  0  0  0  0  0  0  0  0
    1.7629    2.0931    0.3761 C   0  0  0  0  0  0  0  0  0  0  0  0
    2.9025    2.3002   -0.2659 C   0  0  0  0  0  0  0  0  0  0  0  0
    1.3872   -0.3510    0.0791 C   0  0  0  0  0  0  0  0  0  0  0  0
    2.7204   -0.4933    0.2130 F   0  0  0  0  0  0  0  0  0  0  0  0
    2.5554   -4.3194   -0.4362 H   0  0  0  0  0  0  0  0  0  0  0  0
    3.1832   -2.6098   -0.3339 H   0  0  0  0  0  0  0  0  0  0  0  0
    0.2818   -3.5871   -0.2607 H   0  0  0  0  0  0  0  0  0  0  0  0
   -1.4559   -2.0979   -0.2886 H   0  0  0  0  0  0  0  0  0  0  0  0
   -2.7187    1.4837    1.2731 H   0  0  0  0  0  0  0  0  0  0  0  0
   -1.9135    2.5486   -0.3608 H   0  0  0  0  0  0  0  0  0  0  0  0
   -0.3709    3.1419   -0.0542 H   0  0  0  0  0  0  0  0  0  0  0  0
    1.4280    2.8000    1.1268 H   0  0  0  0  0  0  0  0  0  0  0  0
    3.2635    1.6257   -1.0232 H   0  0  0  0  0  0  0  0  0  0  0  0
    3.5182    3.1575   -0.0547 H   0  0  0  0  0  0  0  0  0  0  0  0
  1  2  2  0  0  0  0
  2  3  1  0  0  0  0
  3  4  4  0  0  0  0
  4  5  4  0  0  0  0
  5  6  1  0  0  0  0
  6  7  2  0  0  0  0
  6  8  1  0  0  0  0
  5  9  4  0  0  0  0
  9 10  1  0  0  0  0
  9 11  4  0  0  0  0
 11 12  1  0  0  0  0
 12 13  2  0  0  0  0
  3 14  4  0  0  0  0
 11 14  4  0  0  0  0
 14 15  1  0  0  0  0
  1 16  1  0  0  0  0
  1 17  1  0  0  0  0
  2 18  1  0  0  0  0
  4 19  1  0  0  0  0
  8 20  1  0  0  0  0
 10 21  1  0  0  0  0
 10 22  1  0  0  0  0
 12 23  1  0  0  0  0
 13 24  1  0  0  0  0
 13 25  1  0  0  0  0
M  END
