
  xtb     02032211353D
 xtb: 6.4.1 (23d549d)
 24 24  0     0  0            999 V2000
    3.9790    0.1774    0.0292 C   0  0  0  0  0  0  0  0  0  0  0  0
    2.8912    0.9351   -0.0342 C   0  0  0  0  0  0  0  0  0  0  0  0
    1.5050    0.4797   -0.0167 C   0  0  0  0  0  0  0  0  0  0  0  0
    1.1489   -0.8682    0.0027 C   0  0  0  0  0  0  0  0  0  0  0  0
   -0.1838   -1.2631    0.0176 C   0  0  0  0  0  0  0  0  0  0  0  0
   -0.4882   -2.6902    0.0320 C   0  0  0  0  0  0  0  0  0  0  0  0
   -1.6865   -3.2555   -0.0494 C   0  0  0  0  0  0  0  0  0  0  0  0
   -1.1852   -0.2888    0.0196 C   0  0  0  0  0  0  0  0  0  0  0  0
   -0.8488    1.0559    0.0007 C   0  0  0  0  0  0  0  0  0  0  0  0
   -1.7469    2.0834    0.0006 O   0  0  0  0  0  0  0  0  0  0  0  0
   -3.1188    1.7777    0.0162 C   0  0  0  0  0  0  0  0  0  0  0  0
    0.4927    1.4325   -0.0200 C   0  0  0  0  0  0  0  0  0  0  0  0
    4.9642    0.6112    0.0109 H   0  0  0  0  0  0  0  0  0  0  0  0
    3.9410   -0.8957    0.1035 H   0  0  0  0  0  0  0  0  0  0  0  0
    3.0060    2.0101   -0.1017 H   0  0  0  0  0  0  0  0  0  0  0  0
    1.9167   -1.6261   -0.0002 H   0  0  0  0  0  0  0  0  0  0  0  0
    0.3827   -3.3299    0.1107 H   0  0  0  0  0  0  0  0  0  0  0  0
   -2.5981   -2.6900   -0.1397 H   0  0  0  0  0  0  0  0  0  0  0  0
   -1.8014   -4.3258   -0.0327 H   0  0  0  0  0  0  0  0  0  0  0  0
   -2.2172   -0.5958    0.0408 H   0  0  0  0  0  0  0  0  0  0  0  0
   -3.6347    2.7367    0.0088 H   0  0  0  0  0  0  0  0  0  0  0  0
   -3.3986    1.2251    0.9195 H   0  0  0  0  0  0  0  0  0  0  0  0
   -3.4139    1.2031   -0.8682 H   0  0  0  0  0  0  0  0  0  0  0  0
    0.7248    2.4864   -0.0344 H   0  0  0  0  0  0  0  0  0  0  0  0
  1  2  2  0  0  0  0
  2  3  1  0  0  0  0
  3  4  4  0  0  0  0
  4  5  4  0  0  0  0
  5  6  1  0  0  0  0
  6  7  2  0  0  0  0
  5  8  4  0  0  0  0
  8  9  4  0  0  0  0
  9 10  1  0  0  0  0
 10 11  1  0  0  0  0
  3 12  4  0  0  0  0
  9 12  4  0  0  0  0
  1 13  1  0  0  0  0
  1 14  1  0  0  0  0
  2 15  1  0  0  0  0
  4 16  1  0  0  0  0
  6 17  1  0  0  0  0
  7 18  1  0  0  0  0
  7 19  1  0  0  0  0
  8 20  1  0  0  0  0
 11 21  1  0  0  0  0
 11 22  1  0  0  0  0
 11 23  1  0  0  0  0
 12 24  1  0  0  0  0
M  END
