
 OpenBabel02032211153D

 35 35  0  0  0  0  0  0  0  0999 V2000
    5.6384    1.0614   -0.6585 C   0  0  0  0  0  0  0  0  0  0  0  0
    5.2423   -0.1177   -0.1635 C   0  0  0  0  0  0  0  0  0  0  0  0
    4.5251   -1.0535   -0.9571 C   0  0  0  0  0  0  0  0  0  0  0  0
    4.5702   -1.2837   -2.3163 C   0  0  0  0  0  0  0  0  0  0  0  0
    3.6425   -2.2776   -2.7763 C   0  0  0  0  0  0  0  0  0  0  0  0
    3.5206   -2.6339   -4.2372 C   0  0  0  0  0  0  0  0  0  0  0  0
    2.4969   -1.7864   -4.9984 C   0  0  0  0  0  0  0  0  0  0  0  0
    2.8335   -0.2925   -5.0012 C   0  0  0  0  0  0  0  0  0  0  0  0
    1.8032    0.5065   -5.7923 C   0  0  0  0  0  0  0  0  0  0  0  0
    2.1274    1.9986   -5.7645 C   0  0  0  0  0  0  0  0  0  0  0  0
    1.0914    2.7902   -6.5428 C   0  0  0  0  0  0  0  0  0  0  0  0
    2.9211   -2.8309   -1.7196 C   0  0  0  0  0  0  0  0  0  0  0  0
    1.8795   -3.8091   -1.7735 C   0  0  0  0  0  0  0  0  0  0  0  0
    1.6181   -4.6692   -0.7815 C   0  0  0  0  0  0  0  0  0  0  0  0
    3.4096   -2.1217   -0.2255 S   0  0  0  0  0  0  0  0  0  0  0  0
    6.1758    1.7676   -0.0346 H   0  0  0  0  0  0  0  0  0  0  0  0
    5.4213    1.3698   -1.6771 H   0  0  0  0  0  0  0  0  0  0  0  0
    5.4481   -0.3595    0.8770 H   0  0  0  0  0  0  0  0  0  0  0  0
    5.2280   -0.7341   -2.9785 H   0  0  0  0  0  0  0  0  0  0  0  0
    3.2577   -3.6942   -4.3408 H   0  0  0  0  0  0  0  0  0  0  0  0
    4.5032   -2.5210   -4.7139 H   0  0  0  0  0  0  0  0  0  0  0  0
    1.4967   -1.9373   -4.5738 H   0  0  0  0  0  0  0  0  0  0  0  0
    2.4589   -2.1426   -6.0349 H   0  0  0  0  0  0  0  0  0  0  0  0
    3.8321   -0.1385   -5.4282 H   0  0  0  0  0  0  0  0  0  0  0  0
    2.8522    0.0934   -3.9766 H   0  0  0  0  0  0  0  0  0  0  0  0
    0.8067    0.3408   -5.3646 H   0  0  0  0  0  0  0  0  0  0  0  0
    1.7753    0.1514   -6.8296 H   0  0  0  0  0  0  0  0  0  0  0  0
    3.1205    2.1750   -6.1945 H   0  0  0  0  0  0  0  0  0  0  0  0
    2.1543    2.3577   -4.7282 H   0  0  0  0  0  0  0  0  0  0  0  0
    1.0621    2.4689   -7.5884 H   0  0  0  0  0  0  0  0  0  0  0  0
    1.3301    3.8579   -6.5189 H   0  0  0  0  0  0  0  0  0  0  0  0
    0.0938    2.6528   -6.1133 H   0  0  0  0  0  0  0  0  0  0  0  0
    1.2798   -3.8606   -2.6797 H   0  0  0  0  0  0  0  0  0  0  0  0
    2.1866   -4.6988    0.1419 H   0  0  0  0  0  0  0  0  0  0  0  0
    0.8105   -5.3884   -0.8754 H   0  0  0  0  0  0  0  0  0  0  0  0
  1  2  2  0  0  0  0
  1 16  1  0  0  0  0
  1 17  1  0  0  0  0
  2  3  1  0  0  0  0
  2 18  1  0  0  0  0
  3  4  2  0  0  0  0
  3 15  1  0  0  0  0
  4  5  1  0  0  0  0
  4 19  1  0  0  0  0
  5  6  1  0  0  0  0
  5 12  2  0  0  0  0
  6  7  1  0  0  0  0
  6 20  1  0  0  0  0
  6 21  1  0  0  0  0
  7  8  1  0  0  0  0
  7 22  1  0  0  0  0
  7 23  1  0  0  0  0
  8  9  1  0  0  0  0
  8 24  1  0  0  0  0
  8 25  1  0  0  0  0
  9 10  1  0  0  0  0
  9 26  1  0  0  0  0
  9 27  1  0  0  0  0
 10 11  1  0  0  0  0
 10 28  1  0  0  0  0
 10 29  1  0  0  0  0
 11 30  1  0  0  0  0
 11 31  1  0  0  0  0
 11 32  1  0  0  0  0
 12 13  1  0  0  0  0
 12 15  1  0  0  0  0
 13 14  2  0  0  0  0
 13 33  1  0  0  0  0
 14 34  1  0  0  0  0
 14 35  1  0  0  0  0
M  END
