 xtb: 6.5.0 (unknown)
          08112218543D

 26  0  0     0  0            999 V2000
   -4.5273   -0.4347    0.5605 C   0  0  0  0  0  0  0  0  0  0  0  0
   -3.6467    0.3310   -0.0703 C   0  0  0  0  0  0  0  0  0  0  0  0
   -2.2044    0.0997   -0.0969 C   0  0  0  0  0  0  0  0  0  0  0  0
   -1.6975   -1.1973   -0.0531 C   0  0  0  0  0  0  0  0  0  0  0  0
   -0.3423   -1.4718   -0.0854 C   0  0  0  0  0  0  0  0  0  0  0  0
    0.1283   -2.8948   -0.0273 C   0  0  0  0  0  0  0  0  0  0  0  0
    0.5584   -0.3974   -0.1617 C   0  0  0  0  0  0  0  0  0  0  0  0
    1.9905   -0.6563   -0.2111 C   0  0  0  0  0  0  0  0  0  0  0  0
    2.9755    0.1833    0.0682 C   0  0  0  0  0  0  0  0  0  0  0  0
    2.8922    1.4445    0.4792 F   0  0  0  0  0  0  0  0  0  0  0  0
    4.2643   -0.1547   -0.0152 F   0  0  0  0  0  0  0  0  0  0  0  0
    0.0528    0.9018   -0.2105 C   0  0  0  0  0  0  0  0  0  0  0  0
   -1.3035    1.1709   -0.1824 C   0  0  0  0  0  0  0  0  0  0  0  0
   -1.7822    2.5910   -0.2241 C   0  0  0  0  0  0  0  0  0  0  0  0
   -5.5814   -0.2165    0.5405 H   0  0  0  0  0  0  0  0  0  0  0  0
   -4.2317   -1.2950    1.1375 H   0  0  0  0  0  0  0  0  0  0  0  0
   -3.9938    1.2059   -0.6038 H   0  0  0  0  0  0  0  0  0  0  0  0
   -2.3944   -2.0215   -0.0115 H   0  0  0  0  0  0  0  0  0  0  0  0
   -0.7175   -3.5668    0.0934 H   0  0  0  0  0  0  0  0  0  0  0  0
    0.8087   -3.0456    0.8095 H   0  0  0  0  0  0  0  0  0  0  0  0
    0.6492   -3.1688   -0.9448 H   0  0  0  0  0  0  0  0  0  0  0  0
    2.3093   -1.6465   -0.4984 H   0  0  0  0  0  0  0  0  0  0  0  0
    0.7381    1.7313   -0.2856 H   0  0  0  0  0  0  0  0  0  0  0  0
   -0.9405    3.2774   -0.1828 H   0  0  0  0  0  0  0  0  0  0  0  0
   -2.4425    2.7996    0.6162 H   0  0  0  0  0  0  0  0  0  0  0  0
   -2.3350    2.7835   -1.1438 H   0  0  0  0  0  0  0  0  0  0  0  0
M  END
