
 OpenBabel08122213063D

 23 23  0  0  0  0  0  0  0  0999 V2000
    1.0342    0.0649    0.2668 C   0  0  0  0  0  0  0  0  0  0  0  0
    2.2227    0.1274   -0.3455 C   0  0  0  0  0  0  0  0  0  0  0  0
    3.0268   -1.0657   -0.6311 C   0  0  0  0  0  0  0  0  0  0  0  0
    2.7464   -1.7714   -1.8128 C   0  0  0  0  0  0  0  0  0  0  0  0
    3.4863   -2.9031   -2.1674 C   0  0  0  0  0  0  0  0  0  0  0  0
    4.5232   -3.3461   -1.3461 C   0  0  0  0  0  0  0  0  0  0  0  0
    5.3452   -4.5455   -1.7135 C   0  0  0  0  0  0  0  0  0  0  0  0
    4.7888   -2.6518   -0.1605 C   0  0  0  0  0  0  0  0  0  0  0  0
    5.7694   -3.1004    0.6421 F   0  0  0  0  0  0  0  0  0  0  0  0
    4.0507   -1.5197    0.2207 C   0  0  0  0  0  0  0  0  0  0  0  0
    4.3454   -0.8940    1.5167 C   0  0  0  0  0  0  0  0  0  0  0  0
    5.2475    0.0670    1.7120 C   0  0  0  0  0  0  0  0  0  0  0  0
    5.9559    0.5816    0.6840 F   0  0  0  0  0  0  0  0  0  0  0  0
    5.4592    0.5291    2.9643 F   0  0  0  0  0  0  0  0  0  0  0  0
    0.4562    0.9682    0.4342 H   0  0  0  0  0  0  0  0  0  0  0  0
    0.6097   -0.8731    0.6105 H   0  0  0  0  0  0  0  0  0  0  0  0
    2.6270    1.0743   -0.6925 H   0  0  0  0  0  0  0  0  0  0  0  0
    1.9424   -1.4412   -2.4690 H   0  0  0  0  0  0  0  0  0  0  0  0
    3.2445   -3.4282   -3.0891 H   0  0  0  0  0  0  0  0  0  0  0  0
    5.0043   -4.9919   -2.6536 H   0  0  0  0  0  0  0  0  0  0  0  0
    5.2707   -5.3106   -0.9343 H   0  0  0  0  0  0  0  0  0  0  0  0
    6.3933   -4.2583   -1.8397 H   0  0  0  0  0  0  0  0  0  0  0  0
    3.8007   -1.2927    2.3660 H   0  0  0  0  0  0  0  0  0  0  0  0
  1  2  2  0  0  0  0
  1 15  1  0  0  0  0
  1 16  1  0  0  0  0
  2  3  1  0  0  0  0
  2 17  1  0  0  0  0
  3  4  1  0  0  0  0
  3 10  2  0  0  0  0
  4  5  2  0  0  0  0
  4 18  1  0  0  0  0
  5  6  1  0  0  0  0
  5 19  1  0  0  0  0
  6  7  1  0  0  0  0
  6  8  2  0  0  0  0
  7 20  1  0  0  0  0
  7 21  1  0  0  0  0
  7 22  1  0  0  0  0
  8  9  1  0  0  0  0
  8 10  1  0  0  0  0
 10 11  1  0  0  0  0
 11 12  2  0  0  0  0
 11 23  1  0  0  0  0
 12 13  1  0  0  0  0
 12 14  1  0  0  0  0
M  END
