
 OpenBabel02032210543D

 32 34  0  0  0  0  0  0  0  0999 V2000
    1.3294    0.6680    0.2116 C   0  0  0  0  0  0  0  0  0  0  0  0
    2.4168   -0.0682   -0.0612 C   0  0  0  0  0  0  0  0  0  0  0  0
    3.0917   -0.8774    0.9796 C   0  0  0  0  0  0  0  0  0  0  0  0
    2.6661   -2.2164    1.2030 C   0  0  0  0  0  0  0  0  0  0  0  0
    1.6666   -2.8326    0.4063 C   0  0  0  0  0  0  0  0  0  0  0  0
    1.2252   -4.1330    0.6352 C   0  0  0  0  0  0  0  0  0  0  0  0
    1.7770   -4.8612    1.6740 C   0  0  0  0  0  0  0  0  0  0  0  0
    2.7703   -4.2857    2.4678 C   0  0  0  0  0  0  0  0  0  0  0  0
    3.2443   -2.9623    2.2595 C   0  0  0  0  0  0  0  0  0  0  0  0
    4.2527   -2.3535    3.0693 C   0  0  0  0  0  0  0  0  0  0  0  0
    4.7678   -3.0791    4.2579 C   0  0  0  0  0  0  0  0  0  0  0  0
    5.8739   -3.8306    4.2741 C   0  0  0  0  0  0  0  0  0  0  0  0
    4.7155   -1.0263    2.8099 C   0  0  0  0  0  0  0  0  0  0  0  0
    5.7336   -0.3937    3.5727 C   0  0  0  0  0  0  0  0  0  0  0  0
    6.1696    0.9047    3.3102 C   0  0  0  0  0  0  0  0  0  0  0  0
    5.5980    1.6219    2.2762 C   0  0  0  0  0  0  0  0  0  0  0  0
    4.5890    1.0332    1.5164 C   0  0  0  0  0  0  0  0  0  0  0  0
    4.1266   -0.2855    1.7558 C   0  0  0  0  0  0  0  0  0  0  0  0
    0.8486    1.2550   -0.5637 H   0  0  0  0  0  0  0  0  0  0  0  0
    0.8979    0.7002    1.2090 H   0  0  0  0  0  0  0  0  0  0  0  0
    2.8484   -0.1015   -1.0565 H   0  0  0  0  0  0  0  0  0  0  0  0
    1.2099   -2.2922   -0.4206 H   0  0  0  0  0  0  0  0  0  0  0  0
    0.4540   -4.5646    0.0032 H   0  0  0  0  0  0  0  0  0  0  0  0
    1.4387   -5.8752    1.8674 H   0  0  0  0  0  0  0  0  0  0  0  0
    3.1834   -4.8972    3.2679 H   0  0  0  0  0  0  0  0  0  0  0  0
    4.1758   -2.9490    5.1620 H   0  0  0  0  0  0  0  0  0  0  0  0
    6.4918   -3.9768    3.3943 H   0  0  0  0  0  0  0  0  0  0  0  0
    6.1909   -4.3133    5.1948 H   0  0  0  0  0  0  0  0  0  0  0  0
    6.2129   -0.9208    4.3953 H   0  0  0  0  0  0  0  0  0  0  0  0
    6.9546    1.3514    3.9150 H   0  0  0  0  0  0  0  0  0  0  0  0
    5.9221    2.6346    2.0584 H   0  0  0  0  0  0  0  0  0  0  0  0
    4.1596    1.6322    0.7150 H   0  0  0  0  0  0  0  0  0  0  0  0
  1  2  2  0  0  0  0
  1 19  1  0  0  0  0
  1 20  1  0  0  0  0
  2  3  1  0  0  0  0
  2 21  1  0  0  0  0
  3  4  1  0  0  0  0
  3 18  2  0  0  0  0
  4  5  1  0  0  0  0
  4  9  2  0  0  0  0
  5  6  2  0  0  0  0
  5 22  1  0  0  0  0
  6  7  1  0  0  0  0
  6 23  1  0  0  0  0
  7  8  2  0  0  0  0
  7 24  1  0  0  0  0
  8  9  1  0  0  0  0
  8 25  1  0  0  0  0
  9 10  1  0  0  0  0
 10 11  1  0  0  0  0
 10 13  2  0  0  0  0
 11 12  2  0  0  0  0
 11 26  1  0  0  0  0
 12 27  1  0  0  0  0
 12 28  1  0  0  0  0
 13 14  1  0  0  0  0
 13 18  1  0  0  0  0
 14 15  2  0  0  0  0
 14 29  1  0  0  0  0
 15 16  1  0  0  0  0
 15 30  1  0  0  0  0
 16 17  2  0  0  0  0
 16 31  1  0  0  0  0
 17 18  1  0  0  0  0
 17 32  1  0  0  0  0
M  END
