
  xtb     02032210543D
 xtb: 6.4.1 (23d549d)
 32 34  0     0  0            999 V2000
    1.2561    0.3466   -0.2035 c   0  0  0  0  0  0  0  0  0  0  0  0
    2.5132   -0.0558   -0.1067 c   0  0  0  0  0  0  0  0  0  0  0  0
    3.0434   -0.8827    0.9887 c   0  0  0  0  0  0  0  0  0  0  0  0
    2.5325   -2.1657    1.2412 c   0  0  0  0  0  0  0  0  0  0  0  0
    1.5123   -2.7376    0.4353 c   0  0  0  0  0  0  0  0  0  0  0  0
    0.9956   -3.9662    0.7073 c   0  0  0  0  0  0  0  0  0  0  0  0
    1.4622   -4.7012    1.8146 c   0  0  0  0  0  0  0  0  0  0  0  0
    2.4658   -4.2077    2.5889 c   0  0  0  0  0  0  0  0  0  0  0  0
    3.0610   -2.9468    2.3186 c   0  0  0  0  0  0  0  0  0  0  0  0
    4.1208   -2.4478    3.0923 c   0  0  0  0  0  0  0  0  0  0  0  0
    4.6910   -3.2352    4.1969 c   0  0  0  0  0  0  0  0  0  0  0  0
    5.2610   -4.4214    4.0558 c   0  0  0  0  0  0  0  0  0  0  0  0
    4.6432   -1.1715    2.8265 c   0  0  0  0  0  0  0  0  0  0  0  0
    5.7331   -0.6458    3.5684 c   0  0  0  0  0  0  0  0  0  0  0  0
    6.2187    0.6025    3.3260 c   0  0  0  0  0  0  0  0  0  0  0  0
    5.6408    1.4051    2.3236 c   0  0  0  0  0  0  0  0  0  0  0  0
    4.6094    0.9284    1.5741 c   0  0  0  0  0  0  0  0  0  0  0  0
    4.0891   -0.3764    1.7781 c   0  0  0  0  0  0  0  0  0  0  0  0
    0.9153    0.9568   -1.0233 h   0  0  0  0  0  0  0  0  0  0  0  0
    0.5222    0.0920    0.5434 h   0  0  0  0  0  0  0  0  0  0  0  0
    3.2351    0.2390   -0.8600 h   0  0  0  0  0  0  0  0  0  0  0  0
    1.1511   -2.1747   -0.4117 h   0  0  0  0  0  0  0  0  0  0  0  0
    0.2202   -4.3839    0.0818 h   0  0  0  0  0  0  0  0  0  0  0  0
    1.0213   -5.6618    2.0379 h   0  0  0  0  0  0  0  0  0  0  0  0
    2.8251   -4.7742    3.4343 h   0  0  0  0  0  0  0  0  0  0  0  0
    4.6371   -2.7735    5.1765 h   0  0  0  0  0  0  0  0  0  0  0  0
    5.3490   -4.8946    3.0916 h   0  0  0  0  0  0  0  0  0  0  0  0
    5.6687   -4.9608    4.8946 h   0  0  0  0  0  0  0  0  0  0  0  0
    6.1817   -1.2614    4.3336 h   0  0  0  0  0  0  0  0  0  0  0  0
    7.0482    0.9879    3.9009 h   0  0  0  0  0  0  0  0  0  0  0  0
    6.0255    2.4004    2.1544 h   0  0  0  0  0  0  0  0  0  0  0  0
    4.1645    1.5484    0.8104 h   0  0  0  0  0  0  0  0  0  0  0  0
  1  2  2  0  0  0  0
  2  3  1  0  0  0  0
  3  4  4  0  0  0  0
  4  5  4  0  0  0  0
  5  6  2  0  0  0  0
  6  7  4  0  0  0  0
  7  8  2  0  0  0  0
  4  9  4  0  0  0  0
  8  9  4  0  0  0  0
  9 10  4  0  0  0  0
 10 11  1  0  0  0  0
 11 12  2  0  0  0  0
 10 13  4  0  0  0  0
 13 14  4  0  0  0  0
 14 15  2  0  0  0  0
 15 16  4  0  0  0  0
 16 17  2  0  0  0  0
  3 18  4  0  0  0  0
 13 18  4  0  0  0  0
 17 18  4  0  0  0  0
  1 19  1  0  0  0  0
  1 20  1  0  0  0  0
  2 21  1  0  0  0  0
  5 22  1  0  0  0  0
  6 23  1  0  0  0  0
  7 24  1  0  0  0  0
  8 25  1  0  0  0  0
 11 26  1  0  0  0  0
 12 27  1  0  0  0  0
 12 28  1  0  0  0  0
 14 29  1  0  0  0  0
 15 30  1  0  0  0  0
 16 31  1  0  0  0  0
 17 32  1  0  0  0  0
M  END
