18

C          0.92170        0.14150        0.08470
C          2.40470       -0.02310        0.09010
C          3.34220        1.00320        0.09570
C          4.66750        0.53880        0.10010
C          5.85140        1.45790        0.10610
C          4.75660       -0.85660        0.09830
C          6.00050       -1.68730        0.10180
S          3.20300       -1.50130        0.09120
H          0.64600        1.21710        0.08530
H          0.49300       -0.34170        0.98710
H          0.50030       -0.33890       -0.82260
H          3.07520        2.05240        0.09630
H          5.52870        2.52070        0.10620
H          6.47040        1.27700       -0.79750
H          6.46310        1.27450        1.01420
H          6.91260       -1.05670        0.10630
H          6.01590       -2.32890       -0.80350
H          6.00900       -2.33200        1.00490
