
  xtb     02032211343D
 xtb: 6.4.1 (23d549d)
 23 24  0     0  0            999 V2000
   -3.9521    1.6208   -0.0019 C   0  0  0  0  0  0  0  0  0  0  0  0
   -3.1776    0.4135    0.0002 N   0  0  0  0  0  0  0  0  0  0  0  0
   -3.6715   -0.8614    0.0019 C   0  0  0  0  0  0  0  0  0  0  0  0
   -2.6560   -1.7678    0.0026 C   0  0  0  0  0  0  0  0  0  0  0  0
   -1.8157    0.3455   -0.0002 C   0  0  0  0  0  0  0  0  0  0  0  0
   -1.4437   -1.0235    0.0010 C   0  0  0  0  0  0  0  0  0  0  0  0
   -0.0971   -1.3683    0.0001 C   0  0  0  0  0  0  0  0  0  0  0  0
    0.8649   -0.3659   -0.0016 C   0  0  0  0  0  0  0  0  0  0  0  0
    2.2609   -0.7710   -0.0031 C   0  0  0  0  0  0  0  0  0  0  0  0
    3.3511   -0.0189    0.0001 C   0  0  0  0  0  0  0  0  0  0  0  0
    3.4422    1.3086    0.0059 F   0  0  0  0  0  0  0  0  0  0  0  0
    4.5860   -0.5295   -0.0021 F   0  0  0  0  0  0  0  0  0  0  0  0
    0.4687    0.9872   -0.0023 C   0  0  0  0  0  0  0  0  0  0  0  0
   -0.8565    1.3530   -0.0017 C   0  0  0  0  0  0  0  0  0  0  0  0
   -5.0115    1.3706   -0.0041 H   0  0  0  0  0  0  0  0  0  0  0  0
   -3.7289    2.2195   -0.8888 H   0  0  0  0  0  0  0  0  0  0  0  0
   -3.7330    2.2203    0.8855 H   0  0  0  0  0  0  0  0  0  0  0  0
   -4.7322   -1.0297    0.0025 H   0  0  0  0  0  0  0  0  0  0  0  0
   -2.7500   -2.8351    0.0039 H   0  0  0  0  0  0  0  0  0  0  0  0
    0.1958   -2.4079    0.0008 H   0  0  0  0  0  0  0  0  0  0  0  0
    2.4483   -1.8356   -0.0072 H   0  0  0  0  0  0  0  0  0  0  0  0
    1.2191    1.7596   -0.0036 H   0  0  0  0  0  0  0  0  0  0  0  0
   -1.1389    2.3950   -0.0024 H   0  0  0  0  0  0  0  0  0  0  0  0
  1  2  1  0  0  0  0
  2  3  1  0  0  0  0
  3  4  2  0  0  0  0
  2  5  1  0  0  0  0
  4  6  4  0  0  0  0
  5  6  4  0  0  0  0
  6  7  4  0  0  0  0
  7  8  4  0  0  0  0
  8  9  1  0  0  0  0
  9 10  2  0  0  0  0
 10 11  1  0  0  0  0
 10 12  1  0  0  0  0
  8 13  4  0  0  0  0
  5 14  4  0  0  0  0
 13 14  2  0  0  0  0
  1 15  1  0  0  0  0
  1 16  1  0  0  0  0
  1 17  1  0  0  0  0
  3 18  1  0  0  0  0
  4 19  1  0  0  0  0
  7 20  1  0  0  0  0
  9 21  1  0  0  0  0
 13 22  1  0  0  0  0
 14 23  1  0  0  0  0
M  END
