36

F          0.94394       -0.47368        1.00225
C          2.29145       -0.59418        0.87352
F          2.80281       -1.83986        0.71784
C          3.04860        0.51580        0.91940
C          4.53590        0.60330        0.80620
C          5.27990        0.52770        2.00440
C          6.67010        0.59030        1.93680
C          7.61810        0.51170        2.92530
C          7.48520        0.35730        4.30450
C          8.65620        0.32140        5.07610
C          9.91830        0.44890        4.46230
C         10.02630        0.60460        3.06900
C          8.84820        0.61900        2.30430
N          8.69890        0.76700        0.95480
C          9.74350        0.91100       -0.04180
C          9.55875        0.43848       -1.35721
C         10.56606        0.58174       -2.31613
C         11.77400        1.19266       -1.97816
C         11.97573        1.66373       -0.68071
C         10.96944        1.52738        0.27988
C          7.34840        0.74430        0.74630
C          6.64030        0.81170       -0.46000
C          5.23610        0.74320       -0.42500
H          2.51399        1.45117        1.06399
H          4.78840        0.40940        2.96220
H          6.51240        0.26960        4.77080
H          8.58930        0.20390        6.14990
H         10.81380        0.43150        5.07090
H         11.00560        0.71940        2.63250
H          8.62716       -0.01654       -1.65966
H         10.40721        0.22199       -3.32441
H         12.55316        1.30105       -2.72148
H         12.91519        2.13219       -0.41689
H         11.16873        1.88122        1.28128
H          7.13200        0.89640       -1.41590
H          4.72840        0.79950       -1.37100
36

F          0.85382        1.25327        1.15310
C          2.18178        1.53150        1.07573
F          2.56075        2.83096        1.14789
C          3.04860        0.51580        0.91940
C          4.53590        0.60330        0.80620
C          5.27990        0.52770        2.00440
C          6.67010        0.59030        1.93680
C          7.61810        0.51170        2.92530
C          7.48520        0.35730        4.30450
C          8.65620        0.32140        5.07610
C          9.91830        0.44890        4.46230
C         10.02630        0.60460        3.06900
C          8.84820        0.61900        2.30430
N          8.69890        0.76700        0.95480
C          9.74350        0.91100       -0.04180
C          9.55875        0.43848       -1.35721
C         10.56606        0.58174       -2.31613
C         11.77400        1.19266       -1.97816
C         11.97573        1.66373       -0.68071
C         10.96944        1.52738        0.27988
C          7.34840        0.74430        0.74630
C          6.64030        0.81170       -0.46000
C          5.23610        0.74320       -0.42500
H          2.61201       -0.47796        0.86067
H          4.78840        0.40940        2.96220
H          6.51240        0.26960        4.77080
H          8.58930        0.20390        6.14990
H         10.81380        0.43150        5.07090
H         11.00560        0.71940        2.63250
H          8.62716       -0.01654       -1.65966
H         10.40721        0.22199       -3.32441
H         12.55316        1.30105       -2.72148
H         12.91519        2.13219       -0.41689
H         11.16873        1.88122        1.28128
H          7.13200        0.89640       -1.41590
H          4.72840        0.79950       -1.37100
36

F          0.85382        1.25327        1.15310
C          2.18178        1.53150        1.07573
F          2.56075        2.83096        1.14789
C          3.04860        0.51580        0.91940
C          4.53590        0.60330        0.80620
C          5.27990        0.52770        2.00440
C          6.67010        0.59030        1.93680
C          7.61810        0.51170        2.92530
C          7.48520        0.35730        4.30450
C          8.65620        0.32140        5.07610
C          9.91830        0.44890        4.46230
C         10.02630        0.60460        3.06900
C          8.84820        0.61900        2.30430
N          8.69890        0.76700        0.95480
C          9.74350        0.91100       -0.04180
C         11.01149        0.32492        0.14909
C         12.01490        0.46274       -0.81470
C         11.77245        1.19049       -1.98009
C         10.52476        1.77983       -2.18480
C          9.51686        1.64025       -1.22635
C          7.34840        0.74430        0.74630
C          6.64030        0.81170       -0.46000
C          5.23610        0.74320       -0.42500
H          2.61201       -0.47796        0.86067
H          4.78840        0.40940        2.96220
H          6.51240        0.26960        4.77080
H          8.58930        0.20390        6.14990
H         10.81380        0.43150        5.07090
H         11.00560        0.71940        2.63250
H         11.22521       -0.26595        1.02747
H         12.98086        0.00022       -0.65885
H         12.55110        1.29744       -2.72416
H         10.33864        2.34958       -3.08613
H          8.57070        2.13044       -1.40586
H          7.13200        0.89640       -1.41590
H          4.72840        0.79950       -1.37100
36

F          0.85382        1.25327        1.15310
C          2.18178        1.53150        1.07573
F          2.56075        2.83096        1.14789
C          3.04860        0.51580        0.91940
C          4.53590        0.60330        0.80620
C          5.27990        0.52770        2.00440
C          6.67010        0.59030        1.93680
C          7.61810        0.51170        2.92530
C          7.48520        0.35730        4.30450
C          8.65620        0.32140        5.07610
C          9.91830        0.44890        4.46230
C         10.02630        0.60460        3.06900
C          8.84820        0.61900        2.30430
N          8.69890        0.76700        0.95480
C          9.74350        0.91100       -0.04180
C         11.10345        0.90985        0.33000
C         12.10778        1.04549       -0.63315
C         11.77281        1.18962       -1.97984
C         10.43236        1.19590       -2.36602
C          9.42503        1.05531       -1.40711
C          7.34840        0.74430        0.74630
C          6.64030        0.81170       -0.46000
C          5.23610        0.74320       -0.42500
H          2.61201       -0.47796        0.86067
H          4.78840        0.40940        2.96220
H          6.51240        0.26960        4.77080
H          8.58930        0.20390        6.14990
H         10.81380        0.43150        5.07090
H         11.00560        0.71940        2.63250
H         11.39894        0.77516        1.36001
H         13.14791        1.03427       -0.33434
H         12.55173        1.29621       -2.72368
H         10.17233        1.31387       -3.41010
H          8.39701        1.08931       -1.73836
H          7.13200        0.89640       -1.41590
H          4.72840        0.79950       -1.37100
36

F          0.94394       -0.47368        1.00225
C          2.29145       -0.59418        0.87352
F          2.80281       -1.83986        0.71784
C          3.04860        0.51580        0.91940
C          4.53590        0.60330        0.80620
C          5.27990        0.52770        2.00440
C          6.67010        0.59030        1.93680
C          7.61810        0.51170        2.92530
C          7.48520        0.35730        4.30450
C          8.65620        0.32140        5.07610
C          9.91830        0.44890        4.46230
C         10.02630        0.60460        3.06900
C          8.84820        0.61900        2.30430
N          8.69890        0.76700        0.95480
C          9.74350        0.91100       -0.04180
C         11.10345        0.90985        0.33000
C         12.10778        1.04549       -0.63315
C         11.77281        1.18962       -1.97984
C         10.43236        1.19590       -2.36602
C          9.42503        1.05531       -1.40711
C          7.34840        0.74430        0.74630
C          6.64030        0.81170       -0.46000
C          5.23610        0.74320       -0.42500
H          2.51399        1.45117        1.06399
H          4.78840        0.40940        2.96220
H          6.51240        0.26960        4.77080
H          8.58930        0.20390        6.14990
H         10.81380        0.43150        5.07090
H         11.00560        0.71940        2.63250
H         11.39894        0.77516        1.36001
H         13.14791        1.03427       -0.33434
H         12.55173        1.29621       -2.72368
H         10.17233        1.31387       -3.41010
H          8.39701        1.08931       -1.73836
H          7.13200        0.89640       -1.41590
H          4.72840        0.79950       -1.37100
36

F          0.94394       -0.47368        1.00225
C          2.29145       -0.59418        0.87352
F          2.80281       -1.83986        0.71784
C          3.04860        0.51580        0.91940
C          4.53590        0.60330        0.80620
C          5.27990        0.52770        2.00440
C          6.67010        0.59030        1.93680
C          7.61810        0.51170        2.92530
C          7.48520        0.35730        4.30450
C          8.65620        0.32140        5.07610
C          9.91830        0.44890        4.46230
C         10.02630        0.60460        3.06900
C          8.84820        0.61900        2.30430
N          8.69890        0.76700        0.95480
C          9.74350        0.91100       -0.04180
C         11.01149        0.32492        0.14909
C         12.01490        0.46274       -0.81470
C         11.77245        1.19049       -1.98009
C         10.52476        1.77983       -2.18480
C          9.51686        1.64025       -1.22635
C          7.34840        0.74430        0.74630
C          6.64030        0.81170       -0.46000
C          5.23610        0.74320       -0.42500
H          2.51399        1.45117        1.06399
H          4.78840        0.40940        2.96220
H          6.51240        0.26960        4.77080
H          8.58930        0.20390        6.14990
H         10.81380        0.43150        5.07090
H         11.00560        0.71940        2.63250
H         11.22521       -0.26595        1.02747
H         12.98086        0.00022       -0.65885
H         12.55110        1.29744       -2.72416
H         10.33864        2.34958       -3.08613
H          8.57070        2.13044       -1.40586
H          7.13200        0.89640       -1.41590
H          4.72840        0.79950       -1.37100
36

F          0.81628        0.88755        0.37711
C          2.13484        1.08842        0.11652
F          2.45824        1.85124       -0.95630
C          3.04860        0.51580        0.91940
C          4.53590        0.60330        0.80620
C          5.27990        0.52770        2.00440
C          6.67010        0.59030        1.93680
C          7.61810        0.51170        2.92530
C          7.48520        0.35730        4.30450
C          8.65620        0.32140        5.07610
C          9.91830        0.44890        4.46230
C         10.02630        0.60460        3.06900
C          8.84820        0.61900        2.30430
N          8.69890        0.76700        0.95480
C          9.74350        0.91100       -0.04180
C          9.55875        0.43848       -1.35721
C         10.56606        0.58174       -2.31613
C         11.77400        1.19266       -1.97816
C         11.97573        1.66373       -0.68071
C         10.96944        1.52738        0.27988
C          7.34840        0.74430        0.74630
C          6.64030        0.81170       -0.46000
C          5.23610        0.74320       -0.42500
H          2.65548       -0.08434        1.73604
H          4.78840        0.40940        2.96220
H          6.51240        0.26960        4.77080
H          8.58930        0.20390        6.14990
H         10.81380        0.43150        5.07090
H         11.00560        0.71940        2.63250
H          8.62716       -0.01654       -1.65966
H         10.40721        0.22199       -3.32441
H         12.55316        1.30105       -2.72148
H         12.91519        2.13219       -0.41689
H         11.16873        1.88122        1.28128
H          7.13200        0.89640       -1.41590
H          4.72840        0.79950       -1.37100
36

F          0.81628        0.88755        0.37711
C          2.13484        1.08842        0.11652
F          2.45824        1.85124       -0.95630
C          3.04860        0.51580        0.91940
C          4.53590        0.60330        0.80620
C          5.27990        0.52770        2.00440
C          6.67010        0.59030        1.93680
C          7.61810        0.51170        2.92530
C          7.48520        0.35730        4.30450
C          8.65620        0.32140        5.07610
C          9.91830        0.44890        4.46230
C         10.02630        0.60460        3.06900
C          8.84820        0.61900        2.30430
N          8.69890        0.76700        0.95480
C          9.74350        0.91100       -0.04180
C         11.10345        0.90985        0.33000
C         12.10778        1.04549       -0.63315
C         11.77281        1.18962       -1.97984
C         10.43236        1.19590       -2.36602
C          9.42503        1.05531       -1.40711
C          7.34840        0.74430        0.74630
C          6.64030        0.81170       -0.46000
C          5.23610        0.74320       -0.42500
H          2.65548       -0.08434        1.73604
H          4.78840        0.40940        2.96220
H          6.51240        0.26960        4.77080
H          8.58930        0.20390        6.14990
H         10.81380        0.43150        5.07090
H         11.00560        0.71940        2.63250
H         11.39894        0.77516        1.36001
H         13.14791        1.03427       -0.33434
H         12.55173        1.29621       -2.72368
H         10.17233        1.31387       -3.41010
H          8.39701        1.08931       -1.73836
H          7.13200        0.89640       -1.41590
H          4.72840        0.79950       -1.37100
36

F          0.81628        0.88755        0.37711
C          2.13484        1.08842        0.11652
F          2.45824        1.85124       -0.95630
C          3.04860        0.51580        0.91940
C          4.53590        0.60330        0.80620
C          5.27990        0.52770        2.00440
C          6.67010        0.59030        1.93680
C          7.61810        0.51170        2.92530
C          7.48520        0.35730        4.30450
C          8.65620        0.32140        5.07610
C          9.91830        0.44890        4.46230
C         10.02630        0.60460        3.06900
C          8.84820        0.61900        2.30430
N          8.69890        0.76700        0.95480
C          9.74350        0.91100       -0.04180
C         11.01149        0.32492        0.14909
C         12.01490        0.46274       -0.81470
C         11.77245        1.19049       -1.98009
C         10.52476        1.77983       -2.18480
C          9.51686        1.64025       -1.22635
C          7.34840        0.74430        0.74630
C          6.64030        0.81170       -0.46000
C          5.23610        0.74320       -0.42500
H          2.65548       -0.08434        1.73604
H          4.78840        0.40940        2.96220
H          6.51240        0.26960        4.77080
H          8.58930        0.20390        6.14990
H         10.81380        0.43150        5.07090
H         11.00560        0.71940        2.63250
H         11.22521       -0.26595        1.02747
H         12.98086        0.00022       -0.65885
H         12.55110        1.29744       -2.72416
H         10.33864        2.34958       -3.08613
H          8.57070        2.13044       -1.40586
H          7.13200        0.89640       -1.41590
H          4.72840        0.79950       -1.37100
36

F          0.93771        0.75420        1.86960
C          2.28515        0.90995        1.95344
F          2.78780        1.47148        3.08015
C          3.04860        0.51580        0.91940
C          4.53590        0.60330        0.80620
C          5.27990        0.52770        2.00440
C          6.67010        0.59030        1.93680
C          7.61810        0.51170        2.92530
C          7.48520        0.35730        4.30450
C          8.65620        0.32140        5.07610
C          9.91830        0.44890        4.46230
C         10.02630        0.60460        3.06900
C          8.84820        0.61900        2.30430
N          8.69890        0.76700        0.95480
C          9.74350        0.91100       -0.04180
C         11.01149        0.32492        0.14909
C         12.01490        0.46274       -0.81470
C         11.77245        1.19049       -1.98009
C         10.52476        1.77983       -2.18480
C          9.51686        1.64025       -1.22635
C          7.34840        0.74430        0.74630
C          6.64030        0.81170       -0.46000
C          5.23610        0.74320       -0.42500
H          2.51807        0.09479        0.06916
H          4.78840        0.40940        2.96220
H          6.51240        0.26960        4.77080
H          8.58930        0.20390        6.14990
H         10.81380        0.43150        5.07090
H         11.00560        0.71940        2.63250
H         11.22521       -0.26595        1.02747
H         12.98086        0.00022       -0.65885
H         12.55110        1.29744       -2.72416
H         10.33864        2.34958       -3.08613
H          8.57070        2.13044       -1.40586
H          7.13200        0.89640       -1.41590
H          4.72840        0.79950       -1.37100
