
 OpenBabel02012213593D

 20 20  0  0  0  0  0  0  0  0999 V2000
    1.0662    0.0449    0.0473 C   0  0  0  0  0  0  0  0  0  0  0  0
    2.5660    0.0758    0.0503 C   0  0  0  0  0  0  0  0  0  0  0  0
    3.2630    1.2886    0.0518 C   0  0  0  0  0  0  0  0  0  0  0  0
    4.6208    1.2944    0.0547 N   0  0  0  0  0  0  0  0  0  0  0  0
    5.3568    0.1490    0.0564 C   0  0  0  0  0  0  0  0  0  0  0  0
    6.8523    0.2674    0.0598 C   0  0  0  0  0  0  0  0  0  0  0  0
    4.6959   -1.1030    0.0549 C   0  0  0  0  0  0  0  0  0  0  0  0
    5.4248   -2.4220    0.0567 C   0  0  0  0  0  0  0  0  0  0  0  0
    3.2930   -1.1197    0.0519 C   0  0  0  0  0  0  0  0  0  0  0  0
    0.6382    1.0701    0.0466 H   0  0  0  0  0  0  0  0  0  0  0  0
    0.7019   -0.4871    0.9512 H   0  0  0  0  0  0  0  0  0  0  0  0
    0.7055   -0.4870   -0.8581 H   0  0  0  0  0  0  0  0  0  0  0  0
    2.7309    2.2311    0.0506 H   0  0  0  0  0  0  0  0  0  0  0  0
    7.1594    1.3350    0.0604 H   0  0  0  0  0  0  0  0  0  0  0  0
    7.2729   -0.2151   -0.8473 H   0  0  0  0  0  0  0  0  0  0  0  0
    7.2686   -0.2148    0.9691 H   0  0  0  0  0  0  0  0  0  0  0  0
    6.5266   -2.3122    0.0594 H   0  0  0  0  0  0  0  0  0  0  0  0
    5.1427   -3.0017   -0.8474 H   0  0  0  0  0  0  0  0  0  0  0  0
    5.1383   -3.0017    0.9593 H   0  0  0  0  0  0  0  0  0  0  0  0
    2.7652   -2.0667    0.0508 H   0  0  0  0  0  0  0  0  0  0  0  0
  1  2  1  0  0  0  0
  1 10  1  0  0  0  0
  1 11  1  0  0  0  0
  1 12  1  0  0  0  0
  2  3  1  0  0  0  0
  2  9  2  0  0  0  0
  3  4  2  0  0  0  0
  3 13  1  0  0  0  0
  4  5  1  0  0  0  0
  5  6  1  0  0  0  0
  5  7  2  0  0  0  0
  6 14  1  0  0  0  0
  6 15  1  0  0  0  0
  6 16  1  0  0  0  0
  7  8  1  0  0  0  0
  7  9  1  0  0  0  0
  8 17  1  0  0  0  0
  8 18  1  0  0  0  0
  8 19  1  0  0  0  0
  9 20  1  0  0  0  0
M  END
