
  xtb     02012213593D
 xtb: 6.4.1 (23d549d)
 20 20  0     0  0            999 V2000
    1.0773    0.0588    0.0473 c   0  0  0  0  0  0  0  0  0  0  0  0
    2.5739    0.0584    0.0505 c   0  0  0  0  0  0  0  0  0  0  0  0
    3.3150    1.2325    0.0520 c   0  0  0  0  0  0  0  0  0  0  0  0
    4.6339    1.2633    0.0549 n   0  0  0  0  0  0  0  0  0  0  0  0
    5.3195    0.1291    0.0564 c   0  0  0  0  0  0  0  0  0  0  0  0
    6.8114    0.2795    0.0597 c   0  0  0  0  0  0  0  0  0  0  0  0
    4.6843   -1.1182    0.0551 c   0  0  0  0  0  0  0  0  0  0  0  0
    5.4277   -2.4208    0.0567 c   0  0  0  0  0  0  0  0  0  0  0  0
    3.2960   -1.1288    0.0521 c   0  0  0  0  0  0  0  0  0  0  0  0
    0.6922    1.0754    0.0465 h   0  0  0  0  0  0  0  0  0  0  0  0
    0.6965   -0.4591    0.9270 h   0  0  0  0  0  0  0  0  0  0  0  0
    0.7003   -0.4589   -0.8342 h   0  0  0  0  0  0  0  0  0  0  0  0
    2.8275    2.1998    0.0509 h   0  0  0  0  0  0  0  0  0  0  0  0
    7.0530    1.3384    0.0601 h   0  0  0  0  0  0  0  0  0  0  0  0
    7.2492   -0.1833   -0.8235 h   0  0  0  0  0  0  0  0  0  0  0  0
    7.2453   -0.1831    0.9449 h   0  0  0  0  0  0  0  0  0  0  0  0
    6.5025   -2.2754    0.0594 h   0  0  0  0  0  0  0  0  0  0  0  0
    5.1583   -3.0033   -0.8240 h   0  0  0  0  0  0  0  0  0  0  0  0
    5.1540   -3.0035    0.9359 h   0  0  0  0  0  0  0  0  0  0  0  0
    2.7713   -2.0756    0.0510 h   0  0  0  0  0  0  0  0  0  0  0  0
  1  2  1  0  0  0  0
  2  3  4  0  0  0  0
  3  4  4  0  0  0  0
  4  5  4  0  0  0  0
  5  6  1  0  0  0  0
  5  7  4  0  0  0  0
  7  8  1  0  0  0  0
  2  9  4  0  0  0  0
  7  9  4  0  0  0  0
  1 10  1  0  0  0  0
  1 11  1  0  0  0  0
  1 12  1  0  0  0  0
  3 13  1  0  0  0  0
  6 14  1  0  0  0  0
  6 15  1  0  0  0  0
  6 16  1  0  0  0  0
  8 17  1  0  0  0  0
  8 18  1  0  0  0  0
  8 19  1  0  0  0  0
  9 20  1  0  0  0  0
M  END
