
  xtb     02012213373D
 xtb: 6.4.1 (23d549d)
 45 49  0     0  0            999 V2000
    1.0983   -0.0311    0.1443 c   0  0  0  0  0  0  0  0  0  0  0  0
    2.5970   -0.0266    0.0811 c   0  0  0  0  0  0  0  0  0  0  0  0
    3.3024   -1.2199   -0.0919 c   0  0  0  0  0  0  0  0  0  0  0  0
    4.6814   -1.2466   -0.1437 c   0  0  0  0  0  0  0  0  0  0  0  0
    3.2811    1.1752    0.1873 c   0  0  0  0  0  0  0  0  0  0  0  0
    4.6645    1.1609    0.1111 c   0  0  0  0  0  0  0  0  0  0  0  0
    5.3772   -0.0506   -0.0369 c   0  0  0  0  0  0  0  0  0  0  0  0
    6.7717    0.2913   -0.0255 c   0  0  0  0  0  0  0  0  0  0  0  0
    7.9389   -0.4502   -0.1500 c   0  0  0  0  0  0  0  0  0  0  0  0
    9.1502    0.2117   -0.1192 c   0  0  0  0  0  0  0  0  0  0  0  0
    9.2063    1.5965    0.0193 c   0  0  0  0  0  0  0  0  0  0  0  0
    8.0587    2.3562    0.1444 c   0  0  0  0  0  0  0  0  0  0  0  0
    6.8396    1.6945    0.1369 c   0  0  0  0  0  0  0  0  0  0  0  0
    5.5596    2.2073    0.2169 n   0  0  0  0  0  0  0  0  0  0  0  0
    5.2248    3.5606    0.3483 c   0  0  0  0  0  0  0  0  0  0  0  0
    5.8061    4.3380    1.3463 c   0  0  0  0  0  0  0  0  0  0  0  0
    5.4810    5.6744    1.4617 c   0  0  0  0  0  0  0  0  0  0  0  0
    4.5597    6.2650    0.5990 c   0  0  0  0  0  0  0  0  0  0  0  0
    4.2126    7.6874    0.7260 c   0  0  0  0  0  0  0  0  0  0  0  0
    5.1966    8.6383    0.9870 c   0  0  0  0  0  0  0  0  0  0  0  0
    4.8699    9.9768    1.0989 c   0  0  0  0  0  0  0  0  0  0  0  0
    3.5550   10.3873    0.9574 c   0  0  0  0  0  0  0  0  0  0  0  0
    2.5680    9.4503    0.7013 c   0  0  0  0  0  0  0  0  0  0  0  0
    2.8934    8.1120    0.5839 c   0  0  0  0  0  0  0  0  0  0  0  0
    3.9758    5.4760   -0.3904 c   0  0  0  0  0  0  0  0  0  0  0  0
    4.3072    4.1431   -0.5221 c   0  0  0  0  0  0  0  0  0  0  0  0
    0.7152   -1.0433    0.2465 h   0  0  0  0  0  0  0  0  0  0  0  0
    0.6812    0.4028   -0.7651 h   0  0  0  0  0  0  0  0  0  0  0  0
    0.7482    0.5633    0.9869 h   0  0  0  0  0  0  0  0  0  0  0  0
    2.7498   -2.1446   -0.1760 h   0  0  0  0  0  0  0  0  0  0  0  0
    5.2115   -2.1800   -0.2598 h   0  0  0  0  0  0  0  0  0  0  0  0
    2.7407    2.0983    0.3389 h   0  0  0  0  0  0  0  0  0  0  0  0
    7.8946   -1.5218   -0.2734 h   0  0  0  0  0  0  0  0  0  0  0  0
   10.0698   -0.3469   -0.2128 h   0  0  0  0  0  0  0  0  0  0  0  0
   10.1680    2.0884    0.0250 h   0  0  0  0  0  0  0  0  0  0  0  0
    8.1119    3.4310    0.2326 h   0  0  0  0  0  0  0  0  0  0  0  0
    6.4998    3.8835    2.0379 h   0  0  0  0  0  0  0  0  0  0  0  0
    5.9252    6.2637    2.2505 h   0  0  0  0  0  0  0  0  0  0  0  0
    6.2268    8.3264    1.0807 h   0  0  0  0  0  0  0  0  0  0  0  0
    5.6445   10.7039    1.2952 h   0  0  0  0  0  0  0  0  0  0  0  0
    3.3003   11.4330    1.0467 h   0  0  0  0  0  0  0  0  0  0  0  0
    1.5396    9.7642    0.5945 h   0  0  0  0  0  0  0  0  0  0  0  0
    2.1166    7.3837    0.4007 h   0  0  0  0  0  0  0  0  0  0  0  0
    3.2776    5.9218   -1.0835 h   0  0  0  0  0  0  0  0  0  0  0  0
    3.8719    3.5477   -1.3108 h   0  0  0  0  0  0  0  0  0  0  0  0
  1  2  1  0  0  0  0
  2  3  4  0  0  0  0
  3  4  4  0  0  0  0
  2  5  4  0  0  0  0
  5  6  4  0  0  0  0
  4  7  4  0  0  0  0
  6  7  4  0  0  0  0
  7  8  1  0  0  0  0
  8  9  4  0  0  0  0
  9 10  4  0  0  0  0
 10 11  4  0  0  0  0
 11 12  4  0  0  0  0
  8 13  4  0  0  0  0
 12 13  4  0  0  0  0
  6 14  1  0  0  0  0
 13 14  1  0  0  0  0
 14 15  1  0  0  0  0
 15 16  4  0  0  0  0
 16 17  4  0  0  0  0
 17 18  4  0  0  0  0
 18 19  1  0  0  0  0
 19 20  4  0  0  0  0
 20 21  4  0  0  0  0
 21 22  4  0  0  0  0
 22 23  4  0  0  0  0
 19 24  4  0  0  0  0
 23 24  4  0  0  0  0
 18 25  4  0  0  0  0
 15 26  4  0  0  0  0
 25 26  4  0  0  0  0
  1 27  1  0  0  0  0
  1 28  1  0  0  0  0
  1 29  1  0  0  0  0
  3 30  1  0  0  0  0
  4 31  1  0  0  0  0
  5 32  1  0  0  0  0
  9 33  1  0  0  0  0
 10 34  1  0  0  0  0
 11 35  1  0  0  0  0
 12 36  1  0  0  0  0
 16 37  1  0  0  0  0
 17 38  1  0  0  0  0
 20 39  1  0  0  0  0
 21 40  1  0  0  0  0
 22 41  1  0  0  0  0
 23 42  1  0  0  0  0
 24 43  1  0  0  0  0
 25 44  1  0  0  0  0
 26 45  1  0  0  0  0
M  END
