
  xtb     02032211353D
 xtb: 6.4.1 (23d549d)
 20 20  0     0  0            999 V2000
   -3.8140   -0.3548   -0.0186 C   0  0  0  0  0  0  0  0  0  0  0  0
   -2.8186    0.5245    0.0035 C   0  0  0  0  0  0  0  0  0  0  0  0
   -1.3929    0.2295    0.0044 C   0  0  0  0  0  0  0  0  0  0  0  0
   -0.4815    1.2890    0.0067 C   0  0  0  0  0  0  0  0  0  0  0  0
    0.8784    1.0684    0.0069 C   0  0  0  0  0  0  0  0  0  0  0  0
    1.3929   -0.2296    0.0059 C   0  0  0  0  0  0  0  0  0  0  0  0
    2.8186   -0.5245    0.0064 C   0  0  0  0  0  0  0  0  0  0  0  0
    3.8139    0.3548   -0.0216 C   0  0  0  0  0  0  0  0  0  0  0  0
    0.4815   -1.2890    0.0058 C   0  0  0  0  0  0  0  0  0  0  0  0
   -0.8783   -1.0684    0.0044 C   0  0  0  0  0  0  0  0  0  0  0  0
   -4.8421   -0.0354   -0.0179 H   0  0  0  0  0  0  0  0  0  0  0  0
   -3.6532   -1.4189   -0.0396 H   0  0  0  0  0  0  0  0  0  0  0  0
   -3.0569    1.5816    0.0215 H   0  0  0  0  0  0  0  0  0  0  0  0
   -0.8550    2.3039    0.0081 H   0  0  0  0  0  0  0  0  0  0  0  0
    1.5491    1.9138    0.0099 H   0  0  0  0  0  0  0  0  0  0  0  0
    3.0570   -1.5815    0.0301 H   0  0  0  0  0  0  0  0  0  0  0  0
    3.6529    1.4188   -0.0491 H   0  0  0  0  0  0  0  0  0  0  0  0
    4.8421    0.0356   -0.0191 H   0  0  0  0  0  0  0  0  0  0  0  0
    0.8550   -2.3040    0.0062 H   0  0  0  0  0  0  0  0  0  0  0  0
   -1.5491   -1.9138    0.0047 H   0  0  0  0  0  0  0  0  0  0  0  0
  1  2  2  0  0  0  0
  2  3  1  0  0  0  0
  3  4  4  0  0  0  0
  4  5  4  0  0  0  0
  5  6  4  0  0  0  0
  6  7  1  0  0  0  0
  7  8  2  0  0  0  0
  6  9  4  0  0  0  0
  3 10  4  0  0  0  0
  9 10  4  0  0  0  0
  1 11  1  0  0  0  0
  1 12  1  0  0  0  0
  2 13  1  0  0  0  0
  4 14  1  0  0  0  0
  5 15  1  0  0  0  0
  7 16  1  0  0  0  0
  8 17  1  0  0  0  0
  8 18  1  0  0  0  0
  9 19  1  0  0  0  0
 10 20  1  0  0  0  0
M  END
