
  xtb     02032211353D
 xtb: 6.4.1 (23d549d)
 22 22  0     0  0            999 V2000
    3.5696   -0.2889   -0.4756 C   0  0  0  0  0  0  0  0  0  0  0  0
    2.5910    0.3086    0.1902 C   0  0  0  0  0  0  0  0  0  0  0  0
    1.1780   -0.0623    0.1084 C   0  0  0  0  0  0  0  0  0  0  0  0
    0.8357   -1.4024   -0.0390 C   0  0  0  0  0  0  0  0  0  0  0  0
   -0.4925   -1.7710   -0.0622 C   0  0  0  0  0  0  0  0  0  0  0  0
   -0.8128   -3.0833   -0.1779 F   0  0  0  0  0  0  0  0  0  0  0  0
   -1.5025   -0.8390    0.0444 C   0  0  0  0  0  0  0  0  0  0  0  0
   -1.1899    0.5129    0.1481 C   0  0  0  0  0  0  0  0  0  0  0  0
   -2.3082    1.4557    0.2137 C   0  0  0  0  0  0  0  0  0  0  0  0
   -2.3780    2.6409   -0.3803 C   0  0  0  0  0  0  0  0  0  0  0  0
    0.1615    0.9120    0.2004 C   0  0  0  0  0  0  0  0  0  0  0  0
    0.4840    2.2479    0.2871 N   0  0  0  0  0  0  0  0  0  0  0  0
    4.5974    0.0084   -0.3582 H   0  0  0  0  0  0  0  0  0  0  0  0
    3.3793   -1.0846   -1.1753 H   0  0  0  0  0  0  0  0  0  0  0  0
    2.8401    1.1229    0.8622 H   0  0  0  0  0  0  0  0  0  0  0  0
    1.6022   -2.1577   -0.0989 H   0  0  0  0  0  0  0  0  0  0  0  0
   -2.5326   -1.1592    0.0251 H   0  0  0  0  0  0  0  0  0  0  0  0
   -3.1663    1.0930    0.7680 H   0  0  0  0  0  0  0  0  0  0  0  0
   -1.5889    3.0198   -1.0073 H   0  0  0  0  0  0  0  0  0  0  0  0
   -3.2592    3.2550   -0.2976 H   0  0  0  0  0  0  0  0  0  0  0  0
   -0.2344    2.8421    0.6718 H   0  0  0  0  0  0  0  0  0  0  0  0
    1.4196    2.4628    0.5907 H   0  0  0  0  0  0  0  0  0  0  0  0
  1  2  2  0  0  0  0
  2  3  1  0  0  0  0
  3  4  4  0  0  0  0
  4  5  4  0  0  0  0
  5  6  1  0  0  0  0
  5  7  4  0  0  0  0
  7  8  4  0  0  0  0
  8  9  1  0  0  0  0
  9 10  2  0  0  0  0
  3 11  4  0  0  0  0
  8 11  4  0  0  0  0
 11 12  1  0  0  0  0
  1 13  1  0  0  0  0
  1 14  1  0  0  0  0
  2 15  1  0  0  0  0
  4 16  1  0  0  0  0
  7 17  1  0  0  0  0
  9 18  1  0  0  0  0
 10 19  1  0  0  0  0
 10 20  1  0  0  0  0
 12 21  1  0  0  0  0
 12 22  1  0  0  0  0
M  END
