21

C          2.40358       -0.03443        1.27170
C          2.21870        0.06710       -0.05250
C          3.02430        0.92600       -0.94900
C          2.66630        2.25420       -1.23270
C          3.48520        3.04200       -2.04930
C          3.11680        4.40150       -2.33340
N          2.81190        5.49480       -2.55650
C          4.66060        2.51060       -2.58750
C          5.02170        1.18140       -2.33030
C          6.27910        0.66930       -2.92030
C          6.37358        0.07542       -4.11875
C          4.20050        0.39490       -1.50600
H          1.75818       -0.68332        1.85536
H          3.15290        0.54098        1.80482
H          1.41538       -0.50025       -0.50963
H          1.77600        2.68910       -0.79410
H          5.28650        3.12720       -3.22440
H          7.18416        0.81189       -2.34043
H          5.52225       -0.05191       -4.77902
H          7.34382       -0.25757       -4.47598
H          4.48100       -0.62560       -1.28010
21

C          1.21476       -0.72419       -0.45741
C          2.21870        0.06710       -0.05250
C          3.02430        0.92600       -0.94900
C          2.66630        2.25420       -1.23270
C          3.48520        3.04200       -2.04930
C          3.11680        4.40150       -2.33340
N          2.81190        5.49480       -2.55650
C          4.66060        2.51060       -2.58750
C          5.02170        1.18140       -2.33030
C          6.27910        0.66930       -2.92030
C          7.47916        0.72294       -2.32458
C          4.20050        0.39490       -1.50600
H          0.68220       -1.32958        0.26932
H          0.92959       -0.82257       -1.49942
H          2.48146        0.07521        0.99967
H          1.77600        2.68910       -0.79410
H          5.28650        3.12720       -3.22440
H          6.20541        0.19939       -3.89470
H          7.62171        1.12692       -1.32788
H          8.34662        0.30857       -2.83023
H          4.48100       -0.62560       -1.28010
21

C          1.21476       -0.72419       -0.45741
C          2.21870        0.06710       -0.05250
C          3.02430        0.92600       -0.94900
C          2.66630        2.25420       -1.23270
C          3.48520        3.04200       -2.04930
C          3.11680        4.40150       -2.33340
N          2.81190        5.49480       -2.55650
C          4.66060        2.51060       -2.58750
C          5.02170        1.18140       -2.33030
C          6.27910        0.66930       -2.92030
C          6.37358        0.07542       -4.11875
C          4.20050        0.39490       -1.50600
H          0.68220       -1.32958        0.26932
H          0.92959       -0.82257       -1.49942
H          2.48146        0.07521        0.99967
H          1.77600        2.68910       -0.79410
H          5.28650        3.12720       -3.22440
H          7.18416        0.81189       -2.34043
H          5.52225       -0.05191       -4.77902
H          7.34382       -0.25757       -4.47598
H          4.48100       -0.62560       -1.28010
21

C          2.40358       -0.03443        1.27170
C          2.21870        0.06710       -0.05250
C          3.02430        0.92600       -0.94900
C          2.66630        2.25420       -1.23270
C          3.48520        3.04200       -2.04930
C          3.11680        4.40150       -2.33340
N          2.81190        5.49480       -2.55650
C          4.66060        2.51060       -2.58750
C          5.02170        1.18140       -2.33030
C          6.27910        0.66930       -2.92030
C          7.47916        0.72294       -2.32458
C          4.20050        0.39490       -1.50600
H          1.75818       -0.68332        1.85536
H          3.15290        0.54098        1.80482
H          1.41538       -0.50025       -0.50963
H          1.77600        2.68910       -0.79410
H          5.28650        3.12720       -3.22440
H          6.20541        0.19939       -3.89470
H          7.62171        1.12692       -1.32788
H          8.34662        0.30857       -2.83023
H          4.48100       -0.62560       -1.28010
21

C          0.89314        0.17713        0.11710
C          2.21870        0.06710       -0.05250
C          3.02430        0.92600       -0.94900
C          2.66630        2.25420       -1.23270
C          3.48520        3.04200       -2.04930
C          3.11680        4.40150       -2.33340
N          2.81190        5.49480       -2.55650
C          4.66060        2.51060       -2.58750
C          5.02170        1.18140       -2.33030
C          6.27910        0.66930       -2.92030
C          6.81161        1.09880       -4.07350
C          4.20050        0.39490       -1.50600
H          0.37993       -0.50324        0.78938
H          0.29069        0.89845       -0.42470
H          2.74797       -0.71233        0.48465
H          1.77600        2.68910       -0.79410
H          5.28650        3.12720       -3.22440
H          6.80839       -0.09134       -2.35729
H          6.36958        1.89501       -4.66307
H          7.74760        0.67215       -4.42242
H          4.48100       -0.62560       -1.28010
21

C          2.11766       -1.26528       -0.16446
C          2.21870        0.06710       -0.05250
C          3.02430        0.92600       -0.94900
C          2.66630        2.25420       -1.23270
C          3.48520        3.04200       -2.04930
C          3.11680        4.40150       -2.33340
N          2.81190        5.49480       -2.55650
C          4.66060        2.51060       -2.58750
C          5.02170        1.18140       -2.33030
C          6.27910        0.66930       -2.92030
C          7.47916        0.72294       -2.32458
C          4.20050        0.39490       -1.50600
H          1.51033       -1.81879        0.54479
H          2.65479       -1.83275       -0.91696
H          1.69322        0.56147        0.75722
H          1.77600        2.68910       -0.79410
H          5.28650        3.12720       -3.22440
H          6.20541        0.19939       -3.89470
H          7.62171        1.12692       -1.32788
H          8.34662        0.30857       -2.83023
H          4.48100       -0.62560       -1.28010
21

C          2.11766       -1.26528       -0.16446
C          2.21870        0.06710       -0.05250
C          3.02430        0.92600       -0.94900
C          2.66630        2.25420       -1.23270
C          3.48520        3.04200       -2.04930
C          3.11680        4.40150       -2.33340
N          2.81190        5.49480       -2.55650
C          4.66060        2.51060       -2.58750
C          5.02170        1.18140       -2.33030
C          6.27910        0.66930       -2.92030
C          7.05039       -0.27884       -2.36888
C          4.20050        0.39490       -1.50600
H          1.51033       -1.81879        0.54479
H          2.65479       -1.83275       -0.91696
H          1.69322        0.56147        0.75722
H          1.77600        2.68910       -0.79410
H          5.28650        3.12720       -3.22440
H          6.57324        1.08356       -3.87820
H          6.79227       -0.77890       -1.44138
H          7.95136       -0.60152       -2.88266
H          4.48100       -0.62560       -1.28010
21

C          1.21476       -0.72419       -0.45741
C          2.21870        0.06710       -0.05250
C          3.02430        0.92600       -0.94900
C          2.66630        2.25420       -1.23270
C          3.48520        3.04200       -2.04930
C          3.11680        4.40150       -2.33340
N          2.81190        5.49480       -2.55650
C          4.66060        2.51060       -2.58750
C          5.02170        1.18140       -2.33030
C          6.27910        0.66930       -2.92030
C          7.05039       -0.27884       -2.36888
C          4.20050        0.39490       -1.50600
H          0.68220       -1.32958        0.26932
H          0.92959       -0.82257       -1.49942
H          2.48146        0.07521        0.99967
H          1.77600        2.68910       -0.79410
H          5.28650        3.12720       -3.22440
H          6.57324        1.08356       -3.87820
H          6.79227       -0.77890       -1.44138
H          7.95136       -0.60152       -2.88266
H          4.48100       -0.62560       -1.28010
21

C          2.11766       -1.26528       -0.16446
C          2.21870        0.06710       -0.05250
C          3.02430        0.92600       -0.94900
C          2.66630        2.25420       -1.23270
C          3.48520        3.04200       -2.04930
C          3.11680        4.40150       -2.33340
N          2.81190        5.49480       -2.55650
C          4.66060        2.51060       -2.58750
C          5.02170        1.18140       -2.33030
C          6.27910        0.66930       -2.92030
C          6.37358        0.07542       -4.11875
C          4.20050        0.39490       -1.50600
H          1.51033       -1.81879        0.54479
H          2.65479       -1.83275       -0.91696
H          1.69322        0.56147        0.75722
H          1.77600        2.68910       -0.79410
H          5.28650        3.12720       -3.22440
H          7.18416        0.81189       -2.34043
H          5.52225       -0.05191       -4.77902
H          7.34382       -0.25757       -4.47598
H          4.48100       -0.62560       -1.28010
21

C          2.40358       -0.03443        1.27170
C          2.21870        0.06710       -0.05250
C          3.02430        0.92600       -0.94900
C          2.66630        2.25420       -1.23270
C          3.48520        3.04200       -2.04930
C          3.11680        4.40150       -2.33340
N          2.81190        5.49480       -2.55650
C          4.66060        2.51060       -2.58750
C          5.02170        1.18140       -2.33030
C          6.27910        0.66930       -2.92030
C          7.05039       -0.27884       -2.36888
C          4.20050        0.39490       -1.50600
H          1.75818       -0.68332        1.85536
H          3.15290        0.54098        1.80482
H          1.41538       -0.50025       -0.50963
H          1.77600        2.68910       -0.79410
H          5.28650        3.12720       -3.22440
H          6.57324        1.08356       -3.87820
H          6.79227       -0.77890       -1.44138
H          7.95136       -0.60152       -2.88266
H          4.48100       -0.62560       -1.28010
