
 OpenBabel02032211083D

 20 20  0  0  0  0  0  0  0  0999 V2000
    1.1075   -0.0404   -0.3667 C   0  0  0  0  0  0  0  0  0  0  0  0
    2.3938   -0.0621    0.0072 C   0  0  0  0  0  0  0  0  0  0  0  0
    3.0212   -1.1695    0.7395 C   0  0  0  0  0  0  0  0  0  0  0  0
    2.6337   -2.5000    0.5556 C   0  0  0  0  0  0  0  0  0  0  0  0
    3.2398   -3.5254    1.2858 C   0  0  0  0  0  0  0  0  0  0  0  0
    2.7838   -4.7723    1.0913 F   0  0  0  0  0  0  0  0  0  0  0  0
    4.2645   -3.2700    2.2022 C   0  0  0  0  0  0  0  0  0  0  0  0
    4.8872   -4.3028    3.0475 C   0  0  0  0  0  0  0  0  0  0  0  0
    5.0232   -5.5959    2.7276 C   0  0  0  0  0  0  0  0  0  0  0  0
    4.6575   -1.9353    2.3558 C   0  0  0  0  0  0  0  0  0  0  0  0
    5.6333   -1.6166    3.2220 F   0  0  0  0  0  0  0  0  0  0  0  0
    4.0611   -0.8986    1.6331 C   0  0  0  0  0  0  0  0  0  0  0  0
    0.7026    0.8191   -0.8924 H   0  0  0  0  0  0  0  0  0  0  0  0
    0.4181   -0.8513   -0.1520 H   0  0  0  0  0  0  0  0  0  0  0  0
    3.0237    0.7982   -0.2097 H   0  0  0  0  0  0  0  0  0  0  0  0
    1.8515   -2.7683   -0.1490 H   0  0  0  0  0  0  0  0  0  0  0  0
    5.2734   -3.9574    4.0056 H   0  0  0  0  0  0  0  0  0  0  0  0
    4.6802   -6.0077    1.7838 H   0  0  0  0  0  0  0  0  0  0  0  0
    5.4957   -6.2856    3.4203 H   0  0  0  0  0  0  0  0  0  0  0  0
    4.4098    0.1172    1.8004 H   0  0  0  0  0  0  0  0  0  0  0  0
  1  2  2  0  0  0  0
  1 13  1  0  0  0  0
  1 14  1  0  0  0  0
  2  3  1  0  0  0  0
  2 15  1  0  0  0  0
  3  4  1  0  0  0  0
  3 12  2  0  0  0  0
  4  5  2  0  0  0  0
  4 16  1  0  0  0  0
  5  6  1  0  0  0  0
  5  7  1  0  0  0  0
  7  8  1  0  0  0  0
  7 10  2  0  0  0  0
  8  9  2  0  0  0  0
  8 17  1  0  0  0  0
  9 18  1  0  0  0  0
  9 19  1  0  0  0  0
 10 11  1  0  0  0  0
 10 12  1  0  0  0  0
 12 20  1  0  0  0  0
M  END
