
  xtb     02032210413D
 xtb: 6.4.1 (23d549d)
 36 39  0     0  0            999 V2000
    3.4790   -3.4856   -0.8808 f   0  0  0  0  0  0  0  0  0  0  0  0
    3.7768   -2.2336   -0.5407 c   0  0  0  0  0  0  0  0  0  0  0  0
    2.8859   -1.4177   -1.0906 f   0  0  0  0  0  0  0  0  0  0  0  0
    4.8081   -1.9194    0.2292 c   0  0  0  0  0  0  0  0  0  0  0  0
    5.2353   -0.6022    0.6760 c   0  0  0  0  0  0  0  0  0  0  0  0
    6.3363   -0.5332    1.5291 c   0  0  0  0  0  0  0  0  0  0  0  0
    6.7933    0.6884    2.0069 c   0  0  0  0  0  0  0  0  0  0  0  0
    7.8910    0.7359    2.8739 n   0  0  0  0  0  0  0  0  0  0  0  0
    8.0522   -0.0235    4.0175 c   0  0  0  0  0  0  0  0  0  0  0  0
    9.2807    0.3119    4.6310 c   0  0  0  0  0  0  0  0  0  0  0  0
    9.6616   -0.3122    5.8115 c   0  0  0  0  0  0  0  0  0  0  0  0
    8.8144   -1.2495    6.3674 c   0  0  0  0  0  0  0  0  0  0  0  0
    7.5932   -1.5539    5.7704 c   0  0  0  0  0  0  0  0  0  0  0  0
    7.1924   -0.9462    4.5958 c   0  0  0  0  0  0  0  0  0  0  0  0
    8.9955    1.5555    2.7365 c   0  0  0  0  0  0  0  0  0  0  0  0
    9.8869    1.3209    3.8080 c   0  0  0  0  0  0  0  0  0  0  0  0
   11.0851    2.0190    3.8810 c   0  0  0  0  0  0  0  0  0  0  0  0
   11.3826    2.9279    2.8856 c   0  0  0  0  0  0  0  0  0  0  0  0
   10.5104    3.1326    1.8189 c   0  0  0  0  0  0  0  0  0  0  0  0
    9.3120    2.4509    1.7251 c   0  0  0  0  0  0  0  0  0  0  0  0
    6.1521    1.8628    1.6191 c   0  0  0  0  0  0  0  0  0  0  0  0
    5.0718    1.7990    0.7583 c   0  0  0  0  0  0  0  0  0  0  0  0
    4.6078    0.5837    0.2898 c   0  0  0  0  0  0  0  0  0  0  0  0
    5.3979   -2.7588    0.5685 h   0  0  0  0  0  0  0  0  0  0  0  0
    6.8523   -1.4375    1.8159 h   0  0  0  0  0  0  0  0  0  0  0  0
   10.6003   -0.0628    6.2827 h   0  0  0  0  0  0  0  0  0  0  0  0
    9.0930   -1.7495    7.2830 h   0  0  0  0  0  0  0  0  0  0  0  0
    6.9427   -2.2784    6.2378 h   0  0  0  0  0  0  0  0  0  0  0  0
    6.2342   -1.1745    4.1535 h   0  0  0  0  0  0  0  0  0  0  0  0
   11.7682    1.8476    4.6992 h   0  0  0  0  0  0  0  0  0  0  0  0
   12.3078    3.4834    2.9246 h   0  0  0  0  0  0  0  0  0  0  0  0
   10.7781    3.8373    1.0455 h   0  0  0  0  0  0  0  0  0  0  0  0
    8.6523    2.6036    0.8843 h   0  0  0  0  0  0  0  0  0  0  0  0
    6.4932    2.8110    2.0051 h   0  0  0  0  0  0  0  0  0  0  0  0
    4.5764    2.7096    0.4570 h   0  0  0  0  0  0  0  0  0  0  0  0
    3.7605    0.5635   -0.3744 h   0  0  0  0  0  0  0  0  0  0  0  0
  1  2  1  0  0  0  0
  2  3  1  0  0  0  0
  2  4  2  0  0  0  0
  4  5  1  0  0  0  0
  5  6  4  0  0  0  0
  6  7  4  0  0  0  0
  7  8  1  0  0  0  0
  8  9  1  0  0  0  0
  9 10  4  0  0  0  0
 10 11  4  0  0  0  0
 11 12  4  0  0  0  0
 12 13  4  0  0  0  0
  9 14  4  0  0  0  0
 13 14  4  0  0  0  0
  8 15  1  0  0  0  0
 10 16  1  0  0  0  0
 15 16  4  0  0  0  0
 16 17  4  0  0  0  0
 17 18  4  0  0  0  0
 18 19  4  0  0  0  0
 15 20  4  0  0  0  0
 19 20  4  0  0  0  0
  7 21  4  0  0  0  0
 21 22  4  0  0  0  0
  5 23  4  0  0  0  0
 22 23  4  0  0  0  0
  4 24  1  0  0  0  0
  6 25  1  0  0  0  0
 11 26  1  0  0  0  0
 12 27  1  0  0  0  0
 13 28  1  0  0  0  0
 14 29  1  0  0  0  0
 17 30  1  0  0  0  0
 18 31  1  0  0  0  0
 19 32  1  0  0  0  0
 20 33  1  0  0  0  0
 21 34  1  0  0  0  0
 22 35  1  0  0  0  0
 23 36  1  0  0  0  0
M  END
