
  xtb     02032211353D
 xtb: 6.4.1 (23d549d)
 22 22  0     0  0            999 V2000
   -3.8038    0.9984   -0.0631 C   0  0  0  0  0  0  0  0  0  0  0  0
   -2.9315   -0.0022   -0.0638 C   0  0  0  0  0  0  0  0  0  0  0  0
   -1.4796    0.1123   -0.0106 C   0  0  0  0  0  0  0  0  0  0  0  0
   -0.7882    1.3245    0.0394 C   0  0  0  0  0  0  0  0  0  0  0  0
    0.5896    1.2997    0.1017 C   0  0  0  0  0  0  0  0  0  0  0  0
    1.2716    0.0825    0.1041 C   0  0  0  0  0  0  0  0  0  0  0  0
    2.7265    0.0198    0.1741 C   0  0  0  0  0  0  0  0  0  0  0  0
    3.5482    0.9500   -0.2957 C   0  0  0  0  0  0  0  0  0  0  0  0
    0.4884   -1.0854    0.0425 C   0  0  0  0  0  0  0  0  0  0  0  0
    1.1030   -2.4518    0.0146 C   0  0  0  0  0  0  0  0  0  0  0  0
   -0.8285   -1.0517   -0.0106 N   0  0  0  0  0  0  0  0  0  0  0  0
   -4.8640    0.8158   -0.1055 H   0  0  0  0  0  0  0  0  0  0  0  0
   -3.5067    2.0326   -0.0207 H   0  0  0  0  0  0  0  0  0  0  0  0
   -3.2764   -1.0265   -0.1059 H   0  0  0  0  0  0  0  0  0  0  0  0
   -1.3171    2.2641    0.0395 H   0  0  0  0  0  0  0  0  0  0  0  0
    1.1456    2.2238    0.1699 H   0  0  0  0  0  0  0  0  0  0  0  0
    3.1383   -0.8685    0.6344 H   0  0  0  0  0  0  0  0  0  0  0  0
    3.1903    1.8352   -0.7945 H   0  0  0  0  0  0  0  0  0  0  0  0
    4.6171    0.8508   -0.2152 H   0  0  0  0  0  0  0  0  0  0  0  0
    1.8173   -2.5367   -0.8023 H   0  0  0  0  0  0  0  0  0  0  0  0
    0.3160   -3.1888   -0.1166 H   0  0  0  0  0  0  0  0  0  0  0  0
    1.6239   -2.6566    0.9493 H   0  0  0  0  0  0  0  0  0  0  0  0
  1  2  2  0  0  0  0
  2  3  1  0  0  0  0
  3  4  4  0  0  0  0
  4  5  4  0  0  0  0
  5  6  4  0  0  0  0
  6  7  1  0  0  0  0
  7  8  2  0  0  0  0
  6  9  4  0  0  0  0
  9 10  1  0  0  0  0
  3 11  4  0  0  0  0
  9 11  4  0  0  0  0
  1 12  1  0  0  0  0
  1 13  1  0  0  0  0
  2 14  1  0  0  0  0
  4 15  1  0  0  0  0
  5 16  1  0  0  0  0
  7 17  1  0  0  0  0
  8 18  1  0  0  0  0
  8 19  1  0  0  0  0
 10 20  1  0  0  0  0
 10 21  1  0  0  0  0
 10 22  1  0  0  0  0
M  END
