
  xtb     02032211353D
 xtb: 6.4.1 (23d549d)
 24 25  0     0  0            999 V2000
    0.9718    1.2512    2.3400 C   0  0  0  0  0  0  0  0  0  0  0  0
    1.6030    0.1327    2.0090 C   0  0  0  0  0  0  0  0  0  0  0  0
    1.6665   -0.4578    0.6815 C   0  0  0  0  0  0  0  0  0  0  0  0
    2.7995   -1.2160    0.2754 C   0  0  0  0  0  0  0  0  0  0  0  0
    2.7547   -1.6065   -1.0197 C   0  0  0  0  0  0  0  0  0  0  0  0
    1.3161   -1.0876   -1.8015 S   0  0  0  0  0  0  0  0  0  0  0  0
    0.7513   -0.3192   -0.3419 C   0  0  0  0  0  0  0  0  0  0  0  0
   -0.5520    0.2885   -0.3429 C   0  0  0  0  0  0  0  0  0  0  0  0
   -1.0222    1.3244   -1.6590 S   0  0  0  0  0  0  0  0  0  0  0  0
   -2.5665    1.5831   -0.9476 C   0  0  0  0  0  0  0  0  0  0  0  0
   -2.7124    0.9162    0.2209 C   0  0  0  0  0  0  0  0  0  0  0  0
   -1.5671    0.1567    0.5844 C   0  0  0  0  0  0  0  0  0  0  0  0
   -1.4735   -0.7016    1.7477 C   0  0  0  0  0  0  0  0  0  0  0  0
   -2.2834   -0.6535    2.7991 C   0  0  0  0  0  0  0  0  0  0  0  0
    1.0041    1.6353    3.3447 H   0  0  0  0  0  0  0  0  0  0  0  0
    0.4111    1.8272    1.6246 H   0  0  0  0  0  0  0  0  0  0  0  0
    2.1874   -0.3918    2.7555 H   0  0  0  0  0  0  0  0  0  0  0  0
    3.6215   -1.4332    0.9347 H   0  0  0  0  0  0  0  0  0  0  0  0
    3.4791   -2.1713   -1.5723 H   0  0  0  0  0  0  0  0  0  0  0  0
   -3.2728    2.2163   -1.4469 H   0  0  0  0  0  0  0  0  0  0  0  0
   -3.6151    0.9385    0.8035 H   0  0  0  0  0  0  0  0  0  0  0  0
   -0.6696   -1.4253    1.7211 H   0  0  0  0  0  0  0  0  0  0  0  0
   -3.0798    0.0661    2.8814 H   0  0  0  0  0  0  0  0  0  0  0  0
   -2.1671   -1.3312    3.6268 H   0  0  0  0  0  0  0  0  0  0  0  0
  1  2  2  0  0  0  0
  2  3  1  0  0  0  0
  3  4  4  0  0  0  0
  4  5  2  0  0  0  0
  5  6  1  0  0  0  0
  3  7  4  0  0  0  0
  6  7  1  0  0  0  0
  7  8  1  0  0  0  0
  8  9  1  0  0  0  0
  9 10  1  0  0  0  0
 10 11  2  0  0  0  0
  8 12  4  0  0  0  0
 11 12  4  0  0  0  0
 12 13  1  0  0  0  0
 13 14  2  0  0  0  0
  1 15  1  0  0  0  0
  1 16  1  0  0  0  0
  2 17  1  0  0  0  0
  4 18  1  0  0  0  0
  5 19  1  0  0  0  0
 10 20  1  0  0  0  0
 11 21  1  0  0  0  0
 13 22  1  0  0  0  0
 14 23  1  0  0  0  0
 14 24  1  0  0  0  0
M  END
