
 OpenBabel02032210513D

 20 20  0  0  0  0  0  0  0  0999 V2000
    2.8242    1.2457    0.2342 C   0  0  0  0  0  0  0  0  0  0  0  0
    2.3041    0.0140    0.1474 C   0  0  0  0  0  0  0  0  0  0  0  0
    3.0840   -1.2274    0.2451 C   0  0  0  0  0  0  0  0  0  0  0  0
    4.2180   -1.3345    1.0566 C   0  0  0  0  0  0  0  0  0  0  0  0
    4.9195   -2.5415    1.1496 C   0  0  0  0  0  0  0  0  0  0  0  0
    4.4904   -3.6779    0.4533 C   0  0  0  0  0  0  0  0  0  0  0  0
    5.2853   -4.9064    0.5709 C   0  0  0  0  0  0  0  0  0  0  0  0
    4.8321   -6.1616    0.4867 C   0  0  0  0  0  0  0  0  0  0  0  0
    3.5284   -6.4320    0.2724 F   0  0  0  0  0  0  0  0  0  0  0  0
    5.7029   -7.1817    0.6425 F   0  0  0  0  0  0  0  0  0  0  0  0
    3.3564   -3.5717   -0.3592 C   0  0  0  0  0  0  0  0  0  0  0  0
    2.6545   -2.3622   -0.4526 C   0  0  0  0  0  0  0  0  0  0  0  0
    2.1852    2.1192    0.1513 H   0  0  0  0  0  0  0  0  0  0  0  0
    3.8852    1.4238    0.3734 H   0  0  0  0  0  0  0  0  0  0  0  0
    1.2354   -0.1000   -0.0195 H   0  0  0  0  0  0  0  0  0  0  0  0
    4.5672   -0.4842    1.6367 H   0  0  0  0  0  0  0  0  0  0  0  0
    5.7997   -2.5818    1.7877 H   0  0  0  0  0  0  0  0  0  0  0  0
    6.3439   -4.7708    0.7733 H   0  0  0  0  0  0  0  0  0  0  0  0
    3.0001   -4.4219   -0.9364 H   0  0  0  0  0  0  0  0  0  0  0  0
    1.7732   -2.3163   -1.0892 H   0  0  0  0  0  0  0  0  0  0  0  0
  1  2  2  0  0  0  0
  1 13  1  0  0  0  0
  1 14  1  0  0  0  0
  2  3  1  0  0  0  0
  2 15  1  0  0  0  0
  3  4  1  0  0  0  0
  3 12  2  0  0  0  0
  4  5  2  0  0  0  0
  4 16  1  0  0  0  0
  5  6  1  0  0  0  0
  5 17  1  0  0  0  0
  6  7  1  0  0  0  0
  6 11  2  0  0  0  0
  7  8  2  0  0  0  0
  7 18  1  0  0  0  0
  8  9  1  0  0  0  0
  8 10  1  0  0  0  0
 11 12  1  0  0  0  0
 11 19  1  0  0  0  0
 12 20  1  0  0  0  0
M  END
