
 OpenBabel02032210513D

 20 20  0  0  0  0  0  0  0  0999 V2000
    2.7543    1.2634    0.3900 C   0  0  0  0  0  0  0  0  0  0  0  0
    2.3513    0.0545   -0.0237 C   0  0  0  0  0  0  0  0  0  0  0  0
    3.1091   -1.2120    0.1782 C   0  0  0  0  0  0  0  0  0  0  0  0
    4.3412   -1.2738    0.8549 C   0  0  0  0  0  0  0  0  0  0  0  0
    5.0047   -2.4939    1.0109 C   0  0  0  0  0  0  0  0  0  0  0  0
    4.4614   -3.6869    0.5025 C   0  0  0  0  0  0  0  0  0  0  0  0
    5.2381   -4.9453    0.7175 C   0  0  0  0  0  0  0  0  0  0  0  0
    4.8800   -6.1934    0.3682 C   0  0  0  0  0  0  0  0  0  0  0  0
    3.7082   -6.4883   -0.2462 F   0  0  0  0  0  0  0  0  0  0  0  0
    5.7238   -7.2204    0.6512 F   0  0  0  0  0  0  0  0  0  0  0  0
    3.2275   -3.6209   -0.1756 C   0  0  0  0  0  0  0  0  0  0  0  0
    2.5653   -2.4001   -0.3328 C   0  0  0  0  0  0  0  0  0  0  0  0
    2.1300    2.1293    0.1938 H   0  0  0  0  0  0  0  0  0  0  0  0
    3.6847    1.4275    0.9164 H   0  0  0  0  0  0  0  0  0  0  0  0
    1.4002    0.0025   -0.5464 H   0  0  0  0  0  0  0  0  0  0  0  0
    4.8067   -0.3932    1.2702 H   0  0  0  0  0  0  0  0  0  0  0  0
    5.9512   -2.5043    1.5381 H   0  0  0  0  0  0  0  0  0  0  0  0
    6.1997   -4.8478    1.2154 H   0  0  0  0  0  0  0  0  0  0  0  0
    2.7529   -4.4892   -0.5971 H   0  0  0  0  0  0  0  0  0  0  0  0
    1.6190   -2.3847   -0.8613 H   0  0  0  0  0  0  0  0  0  0  0  0
  1  2  2  0  0  0  0
  1 13  1  0  0  0  0
  1 14  1  0  0  0  0
  2  3  1  0  0  0  0
  2 15  1  0  0  0  0
  3  4  1  0  0  0  0
  3 12  2  0  0  0  0
  4  5  2  0  0  0  0
  4 16  1  0  0  0  0
  5  6  1  0  0  0  0
  5 17  1  0  0  0  0
  6  7  1  0  0  0  0
  6 11  2  0  0  0  0
  7  8  2  0  0  0  0
  7 18  1  0  0  0  0
  8  9  1  0  0  0  0
  8 10  1  0  0  0  0
 11 12  1  0  0  0  0
 11 19  1  0  0  0  0
 12 20  1  0  0  0  0
M  END
