
  xtb     02032211343D
 xtb: 6.4.1 (23d549d)
 20 20  0     0  0            999 V2000
   -2.5681   -2.8694    0.0225 C   0  0  0  0  0  0  0  0  0  0  0  0
   -2.9210   -1.5902   -0.0150 C   0  0  0  0  0  0  0  0  0  0  0  0
   -2.0277   -0.4365   -0.0092 C   0  0  0  0  0  0  0  0  0  0  0  0
   -2.5841    0.8449   -0.0025 C   0  0  0  0  0  0  0  0  0  0  0  0
   -1.7791    1.9672    0.0045 C   0  0  0  0  0  0  0  0  0  0  0  0
   -0.4082    1.8099    0.0035 C   0  0  0  0  0  0  0  0  0  0  0  0
    0.3672    2.9152    0.0101 F   0  0  0  0  0  0  0  0  0  0  0  0
    0.1987    0.5492   -0.0046 C   0  0  0  0  0  0  0  0  0  0  0  0
    1.6511    0.4788   -0.0062 C   0  0  0  0  0  0  0  0  0  0  0  0
    2.4177   -0.6011   -0.0017 C   0  0  0  0  0  0  0  0  0  0  0  0
    2.0365   -1.8733    0.0053 F   0  0  0  0  0  0  0  0  0  0  0  0
    3.7460   -0.5503   -0.0030 F   0  0  0  0  0  0  0  0  0  0  0  0
   -0.6403   -0.5623   -0.0113 C   0  0  0  0  0  0  0  0  0  0  0  0
   -3.3085   -3.6505    0.0156 H   0  0  0  0  0  0  0  0  0  0  0  0
   -1.5430   -3.1950    0.0631 H   0  0  0  0  0  0  0  0  0  0  0  0
   -3.9738   -1.3379   -0.0502 H   0  0  0  0  0  0  0  0  0  0  0  0
   -3.6576    0.9612   -0.0017 H   0  0  0  0  0  0  0  0  0  0  0  0
   -2.1976    2.9612    0.0104 H   0  0  0  0  0  0  0  0  0  0  0  0
    2.1778    1.4223   -0.0101 H   0  0  0  0  0  0  0  0  0  0  0  0
   -0.2049   -1.5460   -0.0213 H   0  0  0  0  0  0  0  0  0  0  0  0
  1  2  2  0  0  0  0
  2  3  1  0  0  0  0
  3  4  4  0  0  0  0
  4  5  4  0  0  0  0
  5  6  4  0  0  0  0
  6  7  1  0  0  0  0
  6  8  4  0  0  0  0
  8  9  1  0  0  0  0
  9 10  2  0  0  0  0
 10 11  1  0  0  0  0
 10 12  1  0  0  0  0
  3 13  4  0  0  0  0
  8 13  4  0  0  0  0
  1 14  1  0  0  0  0
  1 15  1  0  0  0  0
  2 16  1  0  0  0  0
  4 17  1  0  0  0  0
  5 18  1  0  0  0  0
  9 19  1  0  0  0  0
 13 20  1  0  0  0  0
M  END
