
  xtb     02032211353D
 xtb: 6.4.1 (23d549d)
 22 22  0     0  0            999 V2000
   -3.5231   -0.9056    0.0034 C   0  0  0  0  0  0  0  0  0  0  0  0
   -2.2681   -0.9522   -0.4238 C   0  0  0  0  0  0  0  0  0  0  0  0
   -1.2755    0.0936   -0.1724 C   0  0  0  0  0  0  0  0  0  0  0  0
   -1.6465    1.4397   -0.1326 C   0  0  0  0  0  0  0  0  0  0  0  0
   -0.7982    2.4254    0.0807 N   0  0  0  0  0  0  0  0  0  0  0  0
    0.4795    2.1418    0.2262 C   0  0  0  0  0  0  0  0  0  0  0  0
    1.0071    0.8477    0.1523 C   0  0  0  0  0  0  0  0  0  0  0  0
    2.4358    0.5986    0.3057 C   0  0  0  0  0  0  0  0  0  0  0  0
    3.3827    1.4659   -0.0278 C   0  0  0  0  0  0  0  0  0  0  0  0
    0.0893   -0.1977   -0.0249 C   0  0  0  0  0  0  0  0  0  0  0  0
    0.5691   -1.6159   -0.0726 C   0  0  0  0  0  0  0  0  0  0  0  0
    1.4532   -2.0002   -0.7828 O   0  0  0  0  0  0  0  0  0  0  0  0
   -0.0611   -2.4620    0.7677 O   0  0  0  0  0  0  0  0  0  0  0  0
   -4.2225   -1.6918   -0.2214 H   0  0  0  0  0  0  0  0  0  0  0  0
   -3.8939   -0.0900    0.6019 H   0  0  0  0  0  0  0  0  0  0  0  0
   -1.9245   -1.8006   -1.0029 H   0  0  0  0  0  0  0  0  0  0  0  0
   -2.6758    1.7296   -0.2914 H   0  0  0  0  0  0  0  0  0  0  0  0
    1.1249    2.9861    0.4241 H   0  0  0  0  0  0  0  0  0  0  0  0
    2.7111   -0.3738    0.6896 H   0  0  0  0  0  0  0  0  0  0  0  0
    3.1593    2.4260   -0.4618 H   0  0  0  0  0  0  0  0  0  0  0  0
    4.4248    1.2307    0.1005 H   0  0  0  0  0  0  0  0  0  0  0  0
   -0.7757   -2.0368    1.2614 H   0  0  0  0  0  0  0  0  0  0  0  0
  1  2  2  0  0  0  0
  2  3  1  0  0  0  0
  3  4  4  0  0  0  0
  4  5  4  0  0  0  0
  5  6  4  0  0  0  0
  6  7  4  0  0  0  0
  7  8  1  0  0  0  0
  8  9  2  0  0  0  0
  3 10  4  0  0  0  0
  7 10  4  0  0  0  0
 10 11  1  0  0  0  0
 11 12  2  0  0  0  0
 11 13  1  0  0  0  0
  1 14  1  0  0  0  0
  1 15  1  0  0  0  0
  2 16  1  0  0  0  0
  4 17  1  0  0  0  0
  6 18  1  0  0  0  0
  8 19  1  0  0  0  0
  9 20  1  0  0  0  0
  9 21  1  0  0  0  0
 13 22  1  0  0  0  0
M  END
