
  xtb     02032211353D
 xtb: 6.4.1 (23d549d)
 29 29  0     0  0            999 V2000
   -3.1319   -2.7376    0.1582 C   0  0  0  0  0  0  0  0  0  0  0  0
   -3.0970   -1.4077    0.1105 C   0  0  0  0  0  0  0  0  0  0  0  0
   -1.9038   -0.6063    0.0757 C   0  0  0  0  0  0  0  0  0  0  0  0
   -0.5851   -0.9879    0.0774 C   0  0  0  0  0  0  0  0  0  0  0  0
    0.3237    0.0835    0.0393 C   0  0  0  0  0  0  0  0  0  0  0  0
    1.8196   -0.0532    0.0275 C   0  0  0  0  0  0  0  0  0  0  0  0
    2.3164   -1.4795    0.2522 C   0  0  0  0  0  0  0  0  0  0  0  0
    3.8394   -1.5595    0.3675 C   0  0  0  0  0  0  0  0  0  0  0  0
    4.5608   -1.2332   -0.9352 C   0  0  0  0  0  0  0  0  0  0  0  0
   -0.3128    1.3101    0.0030 C   0  0  0  0  0  0  0  0  0  0  0  0
    0.2924    2.6116   -0.0502 C   0  0  0  0  0  0  0  0  0  0  0  0
   -0.3748    3.7627   -0.0868 C   0  0  0  0  0  0  0  0  0  0  0  0
   -2.0409    1.1230    0.0228 S   0  0  0  0  0  0  0  0  0  0  0  0
   -4.0654   -3.2713    0.1821 H   0  0  0  0  0  0  0  0  0  0  0  0
   -2.2370   -3.3351    0.1748 H   0  0  0  0  0  0  0  0  0  0  0  0
   -4.0226   -0.8466    0.0960 H   0  0  0  0  0  0  0  0  0  0  0  0
   -0.2883   -2.0195    0.1048 H   0  0  0  0  0  0  0  0  0  0  0  0
    2.2382    0.5902    0.8077 H   0  0  0  0  0  0  0  0  0  0  0  0
    2.1912    0.3143   -0.9334 H   0  0  0  0  0  0  0  0  0  0  0  0
    1.9894   -2.1166   -0.5724 H   0  0  0  0  0  0  0  0  0  0  0  0
    1.8781   -1.8651    1.1758 H   0  0  0  0  0  0  0  0  0  0  0  0
    4.1091   -2.5733    0.6732 H   0  0  0  0  0  0  0  0  0  0  0  0
    4.1791   -0.8789    1.1519 H   0  0  0  0  0  0  0  0  0  0  0  0
    4.2027   -1.8730   -1.7390 H   0  0  0  0  0  0  0  0  0  0  0  0
    5.6309   -1.3922   -0.8227 H   0  0  0  0  0  0  0  0  0  0  0  0
    4.4038   -0.1970   -1.2237 H   0  0  0  0  0  0  0  0  0  0  0  0
    1.3743    2.6156   -0.0626 H   0  0  0  0  0  0  0  0  0  0  0  0
   -1.4520    3.7888   -0.0785 H   0  0  0  0  0  0  0  0  0  0  0  0
    0.1336    4.7097   -0.1267 H   0  0  0  0  0  0  0  0  0  0  0  0
  1  2  2  0  0  0  0
  2  3  1  0  0  0  0
  3  4  4  0  0  0  0
  4  5  4  0  0  0  0
  5  6  1  0  0  0  0
  6  7  1  0  0  0  0
  7  8  1  0  0  0  0
  8  9  1  0  0  0  0
  5 10  4  0  0  0  0
 10 11  1  0  0  0  0
 11 12  2  0  0  0  0
  3 13  1  0  0  0  0
 10 13  1  0  0  0  0
  1 14  1  0  0  0  0
  1 15  1  0  0  0  0
  2 16  1  0  0  0  0
  4 17  1  0  0  0  0
  6 18  1  0  0  0  0
  6 19  1  0  0  0  0
  7 20  1  0  0  0  0
  7 21  1  0  0  0  0
  8 22  1  0  0  0  0
  8 23  1  0  0  0  0
  9 24  1  0  0  0  0
  9 25  1  0  0  0  0
  9 26  1  0  0  0  0
 11 27  1  0  0  0  0
 12 28  1  0  0  0  0
 12 29  1  0  0  0  0
M  END
