
 OpenBabel02032211033D

 26 26  0  0  0  0  0  0  0  0999 V2000
    1.1456    0.1239    0.3825 C   0  0  0  0  0  0  0  0  0  0  0  0
    2.4718   -0.0110    0.2300 C   0  0  0  0  0  0  0  0  0  0  0  0
    3.2192   -1.3180    0.1917 C   0  0  0  0  0  0  0  0  0  0  0  0
    2.5302   -2.5329    0.2941 C   0  0  0  0  0  0  0  0  0  0  0  0
    3.1954   -3.7476    0.2646 C   0  0  0  0  0  0  0  0  0  0  0  0
    4.5930   -3.8263    0.1313 C   0  0  0  0  0  0  0  0  0  0  0  0
    5.2553   -5.1829    0.1036 C   0  0  0  0  0  0  0  0  0  0  0  0
    4.6320   -6.3597    0.2784 C   0  0  0  0  0  0  0  0  0  0  0  0
    5.3318   -2.6030    0.0223 C   0  0  0  0  0  0  0  0  0  0  0  0
    6.8467   -2.5832   -0.1163 C   0  0  0  0  0  0  0  0  0  0  0  0
    4.6370   -1.3480    0.0521 C   0  0  0  0  0  0  0  0  0  0  0  0
    5.3845   -0.0265   -0.0580 C   0  0  0  0  0  0  0  0  0  0  0  0
    0.7117    1.1190    0.3980 H   0  0  0  0  0  0  0  0  0  0  0  0
    0.4648   -0.7070    0.4964 H   0  0  0  0  0  0  0  0  0  0  0  0
    3.0168    0.9195    0.1328 H   0  0  0  0  0  0  0  0  0  0  0  0
    1.4581   -2.5741    0.3977 H   0  0  0  0  0  0  0  0  0  0  0  0
    2.5765   -4.6247    0.3456 H   0  0  0  0  0  0  0  0  0  0  0  0
    6.3136   -5.2825   -0.0639 H   0  0  0  0  0  0  0  0  0  0  0  0
    3.5738   -6.4650    0.4666 H   0  0  0  0  0  0  0  0  0  0  0  0
    5.2102   -7.2778    0.2393 H   0  0  0  0  0  0  0  0  0  0  0  0
    7.3588   -3.5529   -0.1218 H   0  0  0  0  0  0  0  0  0  0  0  0
    7.2861   -2.0257    0.7375 H   0  0  0  0  0  0  0  0  0  0  0  0
    7.1251   -2.0890   -1.0710 H   0  0  0  0  0  0  0  0  0  0  0  0
    6.4805   -0.1070   -0.1626 H   0  0  0  0  0  0  0  0  0  0  0  0
    5.2030    0.5800    0.8545 H   0  0  0  0  0  0  0  0  0  0  0  0
    5.0282    0.5283   -0.9513 H   0  0  0  0  0  0  0  0  0  0  0  0
  1  2  2  0  0  0  0
  1 13  1  0  0  0  0
  1 14  1  0  0  0  0
  2  3  1  0  0  0  0
  2 15  1  0  0  0  0
  3  4  1  0  0  0  0
  3 11  2  0  0  0  0
  4  5  2  0  0  0  0
  4 16  1  0  0  0  0
  5  6  1  0  0  0  0
  5 17  1  0  0  0  0
  6  7  1  0  0  0  0
  6  9  2  0  0  0  0
  7  8  2  0  0  0  0
  7 18  1  0  0  0  0
  8 19  1  0  0  0  0
  8 20  1  0  0  0  0
  9 10  1  0  0  0  0
  9 11  1  0  0  0  0
 10 21  1  0  0  0  0
 10 22  1  0  0  0  0
 10 23  1  0  0  0  0
 11 12  1  0  0  0  0
 12 24  1  0  0  0  0
 12 25  1  0  0  0  0
 12 26  1  0  0  0  0
M  END
