
 OpenBabel02032211263D

 34 35  0  0  0  0  0  0  0  0999 V2000
    2.6379    1.2288   -0.6178 C   0  0  0  0  0  0  0  0  0  0  0  0
    2.3041    0.1507    0.1038 C   0  0  0  0  0  0  0  0  0  0  0  0
    3.1462   -0.4294    1.1591 C   0  0  0  0  0  0  0  0  0  0  0  0
    3.9536    0.3588    1.9857 C   0  0  0  0  0  0  0  0  0  0  0  0
    4.7258   -0.2229    2.9977 C   0  0  0  0  0  0  0  0  0  0  0  0
    4.6892   -1.6045    3.2235 C   0  0  0  0  0  0  0  0  0  0  0  0
    5.5093   -2.1585    4.3120 C   0  0  0  0  0  0  0  0  0  0  0  0
    5.1950   -3.2652    5.0050 C   0  0  0  0  0  0  0  0  0  0  0  0
    5.9833   -3.6880    6.1625 C   0  0  0  0  0  0  0  0  0  0  0  0
    5.5888   -3.2796    7.4387 C   0  0  0  0  0  0  0  0  0  0  0  0
    6.3256   -3.6636    8.5623 C   0  0  0  0  0  0  0  0  0  0  0  0
    7.4622   -4.4710    8.4309 C   0  0  0  0  0  0  0  0  0  0  0  0
    8.2199   -4.8147    9.6429 C   0  0  0  0  0  0  0  0  0  0  0  0
    8.9284   -5.9377    9.8161 C   0  0  0  0  0  0  0  0  0  0  0  0
    7.8595   -4.8661    7.1465 C   0  0  0  0  0  0  0  0  0  0  0  0
    7.1245   -4.4796    6.0178 C   0  0  0  0  0  0  0  0  0  0  0  0
    3.8822   -2.3930    2.3956 C   0  0  0  0  0  0  0  0  0  0  0  0
    3.1086   -1.8100    1.3829 C   0  0  0  0  0  0  0  0  0  0  0  0
    1.9731    1.6034   -1.3890 H   0  0  0  0  0  0  0  0  0  0  0  0
    3.5764    1.7557   -0.4777 H   0  0  0  0  0  0  0  0  0  0  0  0
    1.3634   -0.3560   -0.0987 H   0  0  0  0  0  0  0  0  0  0  0  0
    3.9849    1.4384    1.8639 H   0  0  0  0  0  0  0  0  0  0  0  0
    5.3409    0.4223    3.6199 H   0  0  0  0  0  0  0  0  0  0  0  0
    6.3874   -1.5775    4.5895 H   0  0  0  0  0  0  0  0  0  0  0  0
    4.3089   -3.8551    4.8003 H   0  0  0  0  0  0  0  0  0  0  0  0
    4.7072   -2.6558    7.5677 H   0  0  0  0  0  0  0  0  0  0  0  0
    5.9962   -3.3293    9.5430 H   0  0  0  0  0  0  0  0  0  0  0  0
    8.1692   -4.0946   10.4574 H   0  0  0  0  0  0  0  0  0  0  0  0
    8.9983   -6.7099    9.0577 H   0  0  0  0  0  0  0  0  0  0  0  0
    9.4490   -6.1153   10.7521 H   0  0  0  0  0  0  0  0  0  0  0  0
    8.7530   -5.4695    7.0043 H   0  0  0  0  0  0  0  0  0  0  0  0
    7.4519   -4.7984    5.0319 H   0  0  0  0  0  0  0  0  0  0  0  0
    3.8417   -3.4720    2.5215 H   0  0  0  0  0  0  0  0  0  0  0  0
    2.4847   -2.4518    0.7647 H   0  0  0  0  0  0  0  0  0  0  0  0
  1  2  2  0  0  0  0
  1 19  1  0  0  0  0
  1 20  1  0  0  0  0
  2  3  1  0  0  0  0
  2 21  1  0  0  0  0
  3  4  1  0  0  0  0
  3 18  2  0  0  0  0
  4  5  2  0  0  0  0
  4 22  1  0  0  0  0
  5  6  1  0  0  0  0
  5 23  1  0  0  0  0
  6  7  1  0  0  0  0
  6 17  2  0  0  0  0
  7  8  2  0  0  0  0
  7 24  1  0  0  0  0
  8  9  1  0  0  0  0
  8 25  1  0  0  0  0
  9 10  1  0  0  0  0
  9 16  2  0  0  0  0
 10 11  2  0  0  0  0
 10 26  1  0  0  0  0
 11 12  1  0  0  0  0
 11 27  1  0  0  0  0
 12 13  1  0  0  0  0
 12 15  2  0  0  0  0
 13 14  2  0  0  0  0
 13 28  1  0  0  0  0
 14 29  1  0  0  0  0
 14 30  1  0  0  0  0
 15 16  1  0  0  0  0
 15 31  1  0  0  0  0
 16 32  1  0  0  0  0
 17 18  1  0  0  0  0
 17 33  1  0  0  0  0
 18 34  1  0  0  0  0
M  END
