
  xtb     02032210523D
 xtb: 6.4.1 (23d549d)
 17 17  0     0  0            999 V2000
    1.1846   -0.1896   -0.3925 c   0  0  0  0  0  0  0  0  0  0  0  0
    2.3164    0.0096    0.2791 c   0  0  0  0  0  0  0  0  0  0  0  0
    3.0647   -1.0085    0.9670 c   0  0  0  0  0  0  0  0  0  0  0  0
    2.8353   -2.3606    1.0640 c   0  0  0  0  0  0  0  0  0  0  0  0
    3.7933   -3.0314    1.8299 c   0  0  0  0  0  0  0  0  0  0  0  0
    4.7707   -2.2027    2.3310 c   0  0  0  0  0  0  0  0  0  0  0  0
    5.8760   -2.6056    3.1493 c   0  0  0  0  0  0  0  0  0  0  0  0
    6.8153   -1.8093    3.6484 c   0  0  0  0  0  0  0  0  0  0  0  0
    6.9073   -0.4954    3.4824 f   0  0  0  0  0  0  0  0  0  0  0  0
    7.8223   -2.2366    4.4051 f   0  0  0  0  0  0  0  0  0  0  0  0
    4.4974   -0.5607    1.8406 s   0  0  0  0  0  0  0  0  0  0  0  0
    0.6774    0.6217   -0.8835 h   0  0  0  0  0  0  0  0  0  0  0  0
    0.7274   -1.1605   -0.4725 h   0  0  0  0  0  0  0  0  0  0  0  0
    2.7389    1.0042    0.3388 h   0  0  0  0  0  0  0  0  0  0  0  0
    2.0026   -2.8526    0.5958 h   0  0  0  0  0  0  0  0  0  0  0  0
    3.7774   -4.0908    2.0157 h   0  0  0  0  0  0  0  0  0  0  0  0
    5.9530   -3.6564    3.3846 h   0  0  0  0  0  0  0  0  0  0  0  0
  1  2  2  0  0  0  0
  2  3  1  0  0  0  0
  3  4  4  0  0  0  0
  4  5  4  0  0  0  0
  5  6  4  0  0  0  0
  6  7  1  0  0  0  0
  7  8  2  0  0  0  0
  8  9  1  0  0  0  0
  8 10  1  0  0  0  0
  3 11  1  0  0  0  0
  6 11  1  0  0  0  0
  1 12  1  0  0  0  0
  1 13  1  0  0  0  0
  2 14  1  0  0  0  0
  4 15  1  0  0  0  0
  5 16  1  0  0  0  0
  7 17  1  0  0  0  0
M  END
