37

C          4.00488        4.42845        4.00634
C          3.41098        3.32289        3.54325
C          3.50001        2.90721        2.12643
C          2.44791        2.19638        1.53588
C          2.54751        1.81103        0.19850
C          3.68754        2.13489       -0.53882
C          4.72960        2.84950        0.07630
C          5.95660        3.21430       -0.67110
C          7.19400        3.33130       -0.01660
C          8.32900        3.67520       -0.74960
C          8.23210        3.89970       -2.12210
C          6.98500        3.77780       -2.75710
C          6.84540        4.00630       -4.21520
C          5.87107        3.32876       -4.96770
C          5.77284        3.56813       -6.33930
C          6.63857        4.47346       -6.95379
C          7.60080        5.13655       -6.18211
C          8.52746        6.09784       -6.81836
C          9.47329        6.74740       -6.13057
N          7.67436        4.88546       -4.84521
N          5.89370        3.44090       -2.01330
N          4.60132        3.21006        1.38433
H          3.91188        4.69345        5.05443
H          4.58532        5.07758        3.35763
H          2.84358        2.71085        4.23885
H          1.56080        1.94256        2.10325
H          1.74006        1.26087       -0.26735
H          3.75098        1.82957       -1.57565
H          7.28590        3.15940        1.04840
H          9.28630        3.76720       -0.25270
H          9.12280        4.16520       -2.67730
H          5.19338        2.62275       -4.50456
H          5.02554        3.05053       -6.92666
H          6.55860        4.65459       -8.01864
H          8.44167        6.28759       -7.88488
H          9.60531        6.59797       -5.06334
H         10.13082        7.44341       -6.64114
37

C          2.84477        0.42845        3.84441
C          3.88551        0.81588        3.09864
C          3.73210        1.68236        1.90961
C          2.46174        2.12950        1.52594
C          2.33381        2.94582        0.40155
C          3.46558        3.31061       -0.32936
C          4.72960        2.84950        0.07630
C          5.95660        3.21430       -0.67110
C          7.19400        3.33130       -0.01660
C          8.32900        3.67520       -0.74960
C          8.23210        3.89970       -2.12210
C          6.98500        3.77780       -2.75710
C          6.84540        4.00630       -4.21520
C          7.95392        4.35140       -5.00685
C          7.78180        4.56190       -6.37591
C          6.51643        4.43038       -6.94884
C          5.42754        4.08510       -6.13881
C          4.07921        3.94359       -6.73007
C          3.62194        2.78050       -7.20724
N          5.62340        3.88405       -4.80578
N          5.89370        3.44090       -2.01330
N          4.81994        2.05296        1.17847
H          3.00598       -0.20784        4.70842
H          1.83000        0.73520        3.60937
H          4.87864        0.47866        3.38214
H          1.58007        1.84971        2.08957
H          1.35633        3.29650        0.09625
H          3.35126        3.94468       -1.19950
H          7.28590        3.15940        1.04840
H          9.28630        3.76720       -0.25270
H          9.12280        4.16520       -2.67730
H          8.94135        4.45806       -4.57578
H          8.62997        4.82826       -6.99317
H          6.38841        4.59591       -8.01154
H          3.43073        4.81405       -6.78131
H          4.22534        1.87825       -7.18283
H          2.62480        2.72515       -7.63165
37

C          1.49523       -0.27306       -0.71074
C          1.52665        1.06303       -0.65325
C          2.57980        1.80231        0.07643
C          2.39962        2.13235        1.42535
C          3.40230        2.83044        2.09936
C          4.57221        3.19285        1.42991
C          4.72960        2.84950        0.07630
C          5.95660        3.21430       -0.67110
C          7.19400        3.33130       -0.01660
C          8.32900        3.67520       -0.74960
C          8.23210        3.89970       -2.12210
C          6.98500        3.77780       -2.75710
C          6.84540        4.00630       -4.21520
C          5.65135        4.50600       -4.76217
C          5.55715        4.70457       -6.14056
C          6.64286        4.40661       -6.96467
C          7.82212        3.91022       -6.39548
C          8.98155        3.58751       -7.25523
C          9.93295        4.48226       -7.54478
N          7.88788        3.72696       -5.04720
N          5.89370        3.44090       -2.01330
N          3.73094        2.16830       -0.55303
H          0.70258       -0.77205       -1.25854
H          2.24847       -0.88218       -0.22013
H          0.74682        1.62091       -1.16416
H          1.49387        1.85345        1.94987
H          3.27274        3.09080        3.14200
H          5.34181        3.73414        1.96561
H          7.28590        3.15940        1.04840
H          9.28630        3.76720       -0.25270
H          9.12280        4.16520       -2.67730
H          4.80049        4.74049       -4.13507
H          4.64123        5.08883       -6.57045
H          6.56388        4.56162       -8.03371
H          9.06942        2.58704       -7.67016
H          9.89737        5.49643       -7.15887
H         10.76577        4.19900       -8.18010
37

C          0.84205        3.75136       -1.51653
C          1.06214        3.51711       -0.21802
C          2.35260        3.00131        0.28867
C          2.38608        2.19781        1.43507
C          3.61148        1.71961        1.90059
C          4.78949        2.04196        1.22487
C          4.72960        2.84950        0.07630
C          5.95660        3.21430       -0.67110
C          7.19400        3.33130       -0.01660
C          8.32900        3.67520       -0.74960
C          8.23210        3.89970       -2.12210
C          6.98500        3.77780       -2.75710
C          6.84540        4.00630       -4.21520
C          7.69230        4.89709       -4.89629
C          7.52748        5.08821       -6.26908
C          6.52726        4.39834       -6.95490
C          5.69636        3.51568       -6.25378
C          4.63000        2.77811       -6.96545
C          3.80039        1.93414       -6.34173
N          5.87953        3.34670       -4.91451
N          5.89370        3.44090       -2.01330
N          3.51694        3.30098       -0.35151
H         -0.12132        4.13016       -1.84178
H          1.60770        3.57230       -2.26541
H          0.25916        3.71555        0.48641
H          1.47500        1.94433        1.96326
H          3.64837        1.09815        2.78608
H          5.73309        1.66369        1.59740
H          7.28590        3.15940        1.04840
H          9.28630        3.76720       -0.25270
H          9.12280        4.16520       -2.67730
H          8.47187        5.44001       -4.37695
H          8.17508        5.77258       -6.80163
H          6.40314        4.55127       -8.01995
H          4.51094        2.92343       -8.03575
H          3.87253        1.74942       -5.27430
H          3.03233        1.41552       -6.90615
37

C          4.00488        4.42845        4.00634
C          3.41098        3.32289        3.54325
C          3.50001        2.90721        2.12643
C          2.44791        2.19638        1.53588
C          2.54751        1.81103        0.19850
C          3.68754        2.13489       -0.53882
C          4.72960        2.84950        0.07630
C          5.95660        3.21430       -0.67110
C          7.19400        3.33130       -0.01660
C          8.32900        3.67520       -0.74960
C          8.23210        3.89970       -2.12210
C          6.98500        3.77780       -2.75710
C          6.84540        4.00630       -4.21520
C          7.69230        4.89709       -4.89629
C          7.52748        5.08821       -6.26908
C          6.52726        4.39834       -6.95490
C          5.69636        3.51568       -6.25378
C          4.63000        2.77811       -6.96545
C          3.38895        3.25936       -7.09871
N          5.87953        3.34670       -4.91451
N          5.89370        3.44090       -2.01330
N          4.60132        3.21006        1.38433
H          3.91188        4.69345        5.05443
H          4.58532        5.07758        3.35763
H          2.84358        2.71085        4.23885
H          1.56080        1.94256        2.10325
H          1.74006        1.26087       -0.26735
H          3.75098        1.82957       -1.57565
H          7.28590        3.15940        1.04840
H          9.28630        3.76720       -0.25270
H          9.12280        4.16520       -2.67730
H          8.47187        5.44001       -4.37695
H          8.17508        5.77258       -6.80163
H          6.40314        4.55127       -8.01995
H          4.85747        1.80793       -7.39888
H          3.10427        4.22246       -6.68624
H          2.63962        2.68185       -7.63017
37

C          3.05281        0.87614        4.14382
C          3.88551        0.81588        3.09864
C          3.73210        1.68236        1.90961
C          2.46174        2.12950        1.52594
C          2.33381        2.94582        0.40155
C          3.46558        3.31061       -0.32936
C          4.72960        2.84950        0.07630
C          5.95660        3.21430       -0.67110
C          7.19400        3.33130       -0.01660
C          8.32900        3.67520       -0.74960
C          8.23210        3.89970       -2.12210
C          6.98500        3.77780       -2.75710
C          6.84540        4.00630       -4.21520
C          5.59729        3.89981       -4.85199
C          5.50670        4.11891       -6.22751
C          6.64991        4.43993       -6.96013
C          7.88211        4.54067       -6.30242
C          9.10385        4.87819       -7.06467
C         10.12681        5.54884       -6.52304
N          7.94240        4.32313       -4.95900
N          5.89370        3.44090       -2.01330
N          4.81994        2.05296        1.17847
H          3.20499        0.22025        4.99471
H          2.21832        1.57050        4.16797
H          4.70386        0.10195        3.13017
H          1.58007        1.84971        2.08957
H          1.35633        3.29650        0.09625
H          3.35126        3.94468       -1.19950
H          7.28590        3.15940        1.04840
H          9.28630        3.76720       -0.25270
H          9.12280        4.16520       -2.67730
H          4.70209        3.65034       -4.29649
H          4.54951        4.03874       -6.72622
H          6.57401        4.60787       -8.02744
H          9.17921        4.57215       -8.10463
H         10.10707        5.87999       -5.48926
H         11.00340        5.77327       -7.12192
37

C          3.85352        2.55618        4.54612
C          3.41098        3.32289        3.54325
C          3.50001        2.90721        2.12643
C          2.44791        2.19638        1.53588
C          2.54751        1.81103        0.19850
C          3.68754        2.13489       -0.53882
C          4.72960        2.84950        0.07630
C          5.95660        3.21430       -0.67110
C          7.19400        3.33130       -0.01660
C          8.32900        3.67520       -0.74960
C          8.23210        3.89970       -2.12210
C          6.98500        3.77780       -2.75710
C          6.84540        4.00630       -4.21520
C          7.95392        4.35140       -5.00685
C          7.78180        4.56190       -6.37591
C          6.51643        4.43038       -6.94884
C          5.42754        4.08510       -6.13881
C          4.07921        3.94359       -6.73007
C          3.68794        4.64037       -7.80291
N          5.62340        3.88405       -4.80578
N          5.89370        3.44090       -2.01330
N          4.60132        3.21006        1.38433
H          3.76691        2.90309        5.57058
H          4.30240        1.58422        4.36476
H          2.97001        4.28604        3.78465
H          1.56080        1.94256        2.10325
H          1.74006        1.26087       -0.26735
H          3.75098        1.82957       -1.57565
H          7.28590        3.15940        1.04840
H          9.28630        3.76720       -0.25270
H          9.12280        4.16520       -2.67730
H          8.94135        4.45806       -4.57578
H          8.62997        4.82826       -6.99317
H          6.38841        4.59591       -8.01154
H          3.37536        3.24849       -6.28034
H          4.34810        5.34907       -8.29349
H          2.68828        4.50234       -8.20176
37

C          2.84477        0.42845        3.84441
C          3.88551        0.81588        3.09864
C          3.73210        1.68236        1.90961
C          2.46174        2.12950        1.52594
C          2.33381        2.94582        0.40155
C          3.46558        3.31061       -0.32936
C          4.72960        2.84950        0.07630
C          5.95660        3.21430       -0.67110
C          7.19400        3.33130       -0.01660
C          8.32900        3.67520       -0.74960
C          8.23210        3.89970       -2.12210
C          6.98500        3.77780       -2.75710
C          6.84540        4.00630       -4.21520
C          5.65135        4.50600       -4.76217
C          5.55715        4.70457       -6.14056
C          6.64286        4.40661       -6.96467
C          7.82212        3.91022       -6.39548
C          8.98155        3.58751       -7.25523
C          9.22618        4.22955       -8.40306
N          7.88788        3.72696       -5.04720
N          5.89370        3.44090       -2.01330
N          4.81994        2.05296        1.17847
H          3.00598       -0.20784        4.70842
H          1.83000        0.73520        3.60937
H          4.87864        0.47866        3.38214
H          1.58007        1.84971        2.08957
H          1.35633        3.29650        0.09625
H          3.35126        3.94468       -1.19950
H          7.28590        3.15940        1.04840
H          9.28630        3.76720       -0.25270
H          9.12280        4.16520       -2.67730
H          4.80049        4.74049       -4.13507
H          4.64123        5.08883       -6.57045
H          6.56388        4.56162       -8.03371
H          9.66430        2.79998       -6.94785
H          8.57850        5.02434       -8.76024
H         10.09033        3.95803       -9.00053
37

C          3.85352        2.55618        4.54612
C          3.41098        3.32289        3.54325
C          3.50001        2.90721        2.12643
C          2.44791        2.19638        1.53588
C          2.54751        1.81103        0.19850
C          3.68754        2.13489       -0.53882
C          4.72960        2.84950        0.07630
C          5.95660        3.21430       -0.67110
C          7.19400        3.33130       -0.01660
C          8.32900        3.67520       -0.74960
C          8.23210        3.89970       -2.12210
C          6.98500        3.77780       -2.75710
C          6.84540        4.00630       -4.21520
C          7.95392        4.35140       -5.00685
C          7.78180        4.56190       -6.37591
C          6.51643        4.43038       -6.94884
C          5.42754        4.08510       -6.13881
C          4.07921        3.94359       -6.73007
C          3.16449        3.09918       -6.24035
N          5.62340        3.88405       -4.80578
N          5.89370        3.44090       -2.01330
N          4.60132        3.21006        1.38433
H          3.76691        2.90309        5.57058
H          4.30240        1.58422        4.36476
H          2.97001        4.28604        3.78465
H          1.56080        1.94256        2.10325
H          1.74006        1.26087       -0.26735
H          3.75098        1.82957       -1.57565
H          7.28590        3.15940        1.04840
H          9.28630        3.76720       -0.25270
H          9.12280        4.16520       -2.67730
H          8.94135        4.45806       -4.57578
H          8.62997        4.82826       -6.99317
H          6.38841        4.59591       -8.01154
H          3.81577        4.54606       -7.59521
H          3.37172        2.47238       -5.37842
H          2.18764        3.03024       -6.70775
37

C          0.84205        3.75136       -1.51653
C          1.06214        3.51711       -0.21802
C          2.35260        3.00131        0.28867
C          2.38608        2.19781        1.43507
C          3.61148        1.71961        1.90059
C          4.78949        2.04196        1.22487
C          4.72960        2.84950        0.07630
C          5.95660        3.21430       -0.67110
C          7.19400        3.33130       -0.01660
C          8.32900        3.67520       -0.74960
C          8.23210        3.89970       -2.12210
C          6.98500        3.77780       -2.75710
C          6.84540        4.00630       -4.21520
C          5.65135        4.50600       -4.76217
C          5.55715        4.70457       -6.14056
C          6.64286        4.40661       -6.96467
C          7.82212        3.91022       -6.39548
C          8.98155        3.58751       -7.25523
C          9.93295        4.48226       -7.54478
N          7.88788        3.72696       -5.04720
N          5.89370        3.44090       -2.01330
N          3.51694        3.30098       -0.35151
H         -0.12132        4.13016       -1.84178
H          1.60770        3.57230       -2.26541
H          0.25916        3.71555        0.48641
H          1.47500        1.94433        1.96326
H          3.64837        1.09815        2.78608
H          5.73309        1.66369        1.59740
H          7.28590        3.15940        1.04840
H          9.28630        3.76720       -0.25270
H          9.12280        4.16520       -2.67730
H          4.80049        4.74049       -4.13507
H          4.64123        5.08883       -6.57045
H          6.56388        4.56162       -8.03371
H          9.06942        2.58704       -7.67016
H          9.89737        5.49643       -7.15887
H         10.76577        4.19900       -8.18010
