
  xtb     02032211353D
 xtb: 6.4.1 (23d549d)
 17 17  0     0  0            999 V2000
    2.1976   -1.8296    0.3517 C   0  0  0  0  0  0  0  0  0  0  0  0
    1.9571   -0.7566   -0.3881 C   0  0  0  0  0  0  0  0  0  0  0  0
    0.8207    0.1438   -0.2367 C   0  0  0  0  0  0  0  0  0  0  0  0
    1.0091    1.5474   -0.3677 C   0  0  0  0  0  0  0  0  0  0  0  0
   -0.1018    2.2725   -0.0967 C   0  0  0  0  0  0  0  0  0  0  0  0
   -1.4332    1.2711    0.3151 S   0  0  0  0  0  0  0  0  0  0  0  0
   -0.4754   -0.1723    0.1116 C   0  0  0  0  0  0  0  0  0  0  0  0
   -1.1761   -1.4296    0.2392 C   0  0  0  0  0  0  0  0  0  0  0  0
   -0.8646   -2.5667   -0.3734 C   0  0  0  0  0  0  0  0  0  0  0  0
    3.0864   -2.4211    0.2130 H   0  0  0  0  0  0  0  0  0  0  0  0
    1.5165   -2.1542    1.1199 H   0  0  0  0  0  0  0  0  0  0  0  0
    2.6828   -0.4380   -1.1272 H   0  0  0  0  0  0  0  0  0  0  0  0
    1.9543    1.9860   -0.6363 H   0  0  0  0  0  0  0  0  0  0  0  0
   -0.2266    3.3370   -0.1148 H   0  0  0  0  0  0  0  0  0  0  0  0
   -2.0720   -1.3783    0.8465 H   0  0  0  0  0  0  0  0  0  0  0  0
   -0.0060   -2.6527   -1.0161 H   0  0  0  0  0  0  0  0  0  0  0  0
   -1.4670   -3.4493   -0.2472 H   0  0  0  0  0  0  0  0  0  0  0  0
  1  2  2  0  0  0  0
  2  3  1  0  0  0  0
  3  4  4  0  0  0  0
  4  5  2  0  0  0  0
  5  6  1  0  0  0  0
  3  7  4  0  0  0  0
  6  7  1  0  0  0  0
  7  8  1  0  0  0  0
  8  9  2  0  0  0  0
  1 10  1  0  0  0  0
  1 11  1  0  0  0  0
  2 12  1  0  0  0  0
  4 13  1  0  0  0  0
  5 14  1  0  0  0  0
  8 15  1  0  0  0  0
  9 16  1  0  0  0  0
  9 17  1  0  0  0  0
M  END
