
  xtb     02032211363D
 xtb: 6.4.1 (23d549d)
 25 25  0     0  0            999 V2000
   -3.9384   -1.6949   -0.4812 C   0  0  0  0  0  0  0  0  0  0  0  0
   -3.6066   -0.5085    0.0143 C   0  0  0  0  0  0  0  0  0  0  0  0
   -2.2611    0.0384    0.0973 C   0  0  0  0  0  0  0  0  0  0  0  0
   -2.0704    1.3632    0.5075 C   0  0  0  0  0  0  0  0  0  0  0  0
   -0.9023    1.9623    0.5537 N   0  0  0  0  0  0  0  0  0  0  0  0
    0.1985    1.2911    0.2260 C   0  0  0  0  0  0  0  0  0  0  0  0
    1.4257    2.0787    0.1832 C   0  0  0  0  0  0  0  0  0  0  0  0
    2.4259    1.8732   -0.6628 C   0  0  0  0  0  0  0  0  0  0  0  0
    0.1387   -0.0784   -0.0902 C   0  0  0  0  0  0  0  0  0  0  0  0
    1.3479   -0.9211   -0.2875 C   0  0  0  0  0  0  0  0  0  0  0  0
    1.5141   -1.6779   -1.2105 O   0  0  0  0  0  0  0  0  0  0  0  0
    2.2048   -0.7834    0.7332 O   0  0  0  0  0  0  0  0  0  0  0  0
    3.4045   -1.5386    0.6577 C   0  0  0  0  0  0  0  0  0  0  0  0
   -1.1033   -0.6883   -0.1812 C   0  0  0  0  0  0  0  0  0  0  0  0
   -4.9635   -2.0215   -0.5106 H   0  0  0  0  0  0  0  0  0  0  0  0
   -3.2122   -2.3815   -0.8815 H   0  0  0  0  0  0  0  0  0  0  0  0
   -4.3820    0.1486    0.3888 H   0  0  0  0  0  0  0  0  0  0  0  0
   -2.9154    1.9741    0.8014 H   0  0  0  0  0  0  0  0  0  0  0  0
    1.4339    2.9245    0.8563 H   0  0  0  0  0  0  0  0  0  0  0  0
    2.4095    1.0770   -1.3897 H   0  0  0  0  0  0  0  0  0  0  0  0
    3.2946    2.5092   -0.6727 H   0  0  0  0  0  0  0  0  0  0  0  0
    3.8231   -1.5518    1.6607 H   0  0  0  0  0  0  0  0  0  0  0  0
    4.1012   -1.0639   -0.0367 H   0  0  0  0  0  0  0  0  0  0  0  0
    3.1939   -2.5528    0.3117 H   0  0  0  0  0  0  0  0  0  0  0  0
   -1.1508   -1.7339   -0.4458 H   0  0  0  0  0  0  0  0  0  0  0  0
  1  2  2  0  0  0  0
  2  3  1  0  0  0  0
  3  4  4  0  0  0  0
  4  5  4  0  0  0  0
  5  6  4  0  0  0  0
  6  7  1  0  0  0  0
  7  8  2  0  0  0  0
  6  9  4  0  0  0  0
  9 10  1  0  0  0  0
 10 11  2  0  0  0  0
 10 12  1  0  0  0  0
 12 13  1  0  0  0  0
  3 14  4  0  0  0  0
  9 14  4  0  0  0  0
  1 15  1  0  0  0  0
  1 16  1  0  0  0  0
  2 17  1  0  0  0  0
  4 18  1  0  0  0  0
  7 19  1  0  0  0  0
  8 20  1  0  0  0  0
  8 21  1  0  0  0  0
 13 22  1  0  0  0  0
 13 23  1  0  0  0  0
 13 24  1  0  0  0  0
 14 25  1  0  0  0  0
M  END
