
  xtb     02032210523D
 xtb: 6.4.1 (23d549d)
 19 19  0     0  0            999 V2000
    3.0326    1.2230    0.0187 c   0  0  0  0  0  0  0  0  0  0  0  0
    2.8016   -0.0433   -0.3032 c   0  0  0  0  0  0  0  0  0  0  0  0
    3.2124   -1.1604    0.5407 c   0  0  0  0  0  0  0  0  0  0  0  0
    4.1534   -0.9032    1.4458 n   0  0  0  0  0  0  0  0  0  0  0  0
    4.6391   -1.8770    2.1837 c   0  0  0  0  0  0  0  0  0  0  0  0
    4.2473   -3.2025    2.0468 c   0  0  0  0  0  0  0  0  0  0  0  0
    3.2547   -3.4882    1.1287 c   0  0  0  0  0  0  0  0  0  0  0  0
    2.6899   -2.4596    0.3760 c   0  0  0  0  0  0  0  0  0  0  0  0
    1.5936   -2.7860   -0.5348 c   0  0  0  0  0  0  0  0  0  0  0  0
    0.4670   -2.1045   -0.6559 c   0  0  0  0  0  0  0  0  0  0  0  0
    0.1166   -1.0152    0.0145 f   0  0  0  0  0  0  0  0  0  0  0  0
   -0.5206   -2.4496   -1.4795 f   0  0  0  0  0  0  0  0  0  0  0  0
    2.7400    2.0359   -0.6227 h   0  0  0  0  0  0  0  0  0  0  0  0
    3.5195    1.4691    0.9461 h   0  0  0  0  0  0  0  0  0  0  0  0
    2.3064   -0.2980   -1.2300 h   0  0  0  0  0  0  0  0  0  0  0  0
    5.3886   -1.5845    2.9076 h   0  0  0  0  0  0  0  0  0  0  0  0
    4.6965   -3.9801    2.6438 h   0  0  0  0  0  0  0  0  0  0  0  0
    2.8958   -4.5000    1.0025 h   0  0  0  0  0  0  0  0  0  0  0  0
    1.6789   -3.6921   -1.1167 h   0  0  0  0  0  0  0  0  0  0  0  0
  1  2  2  0  0  0  0
  2  3  1  0  0  0  0
  3  4  4  0  0  0  0
  4  5  4  0  0  0  0
  5  6  4  0  0  0  0
  6  7  4  0  0  0  0
  3  8  4  0  0  0  0
  7  8  4  0  0  0  0
  8  9  1  0  0  0  0
  9 10  2  0  0  0  0
 10 11  1  0  0  0  0
 10 12  1  0  0  0  0
  1 13  1  0  0  0  0
  1 14  1  0  0  0  0
  2 15  1  0  0  0  0
  5 16  1  0  0  0  0
  6 17  1  0  0  0  0
  7 18  1  0  0  0  0
  9 19  1  0  0  0  0
M  END
