
 OpenBabel02012213463D

 17 17  0  0  0  0  0  0  0  0999 V2000
    1.9940   -1.4587    0.0096 C   0  0  0  0  0  0  0  0  0  0  0  0
    0.6988   -0.6830    0.0006 C   0  0  0  0  0  0  0  0  0  0  0  0
    0.6003    0.7379   -0.0026 C   0  0  0  0  0  0  0  0  0  0  0  0
    1.7729    1.6885    0.0001 C   0  0  0  0  0  0  0  0  0  0  0  0
   -0.6801    1.3187   -0.0091 C   0  0  0  0  0  0  0  0  0  0  0  0
   -1.7956    0.5455   -0.0131 N   0  0  0  0  0  0  0  0  0  0  0  0
   -1.7239   -0.8079   -0.0111 C   0  0  0  0  0  0  0  0  0  0  0  0
   -0.4835   -1.4414   -0.0040 C   0  0  0  0  0  0  0  0  0  0  0  0
    2.9091   -0.8474    0.0152 H   0  0  0  0  0  0  0  0  0  0  0  0
    2.0385   -2.1071   -0.8909 H   0  0  0  0  0  0  0  0  0  0  0  0
    2.0269   -2.1042    0.9128 H   0  0  0  0  0  0  0  0  0  0  0  0
    2.7652    1.2125    0.0015 H   0  0  0  0  0  0  0  0  0  0  0  0
    1.7177    2.3346    0.9017 H   0  0  0  0  0  0  0  0  0  0  0  0
    1.7215    2.3342   -0.9021 H   0  0  0  0  0  0  0  0  0  0  0  0
   -0.7910    2.3961   -0.0114 H   0  0  0  0  0  0  0  0  0  0  0  0
   -2.6330   -1.3944   -0.0146 H   0  0  0  0  0  0  0  0  0  0  0  0
   -0.4442   -2.5243   -0.0020 H   0  0  0  0  0  0  0  0  0  0  0  0
  1  2  1  0  0  0  0
  1  9  1  0  0  0  0
  1 10  1  0  0  0  0
  1 11  1  0  0  0  0
  2  3  1  0  0  0  0
  2  8  2  0  0  0  0
  3  4  1  0  0  0  0
  3  5  2  0  0  0  0
  4 12  1  0  0  0  0
  4 13  1  0  0  0  0
  4 14  1  0  0  0  0
  5  6  1  0  0  0  0
  5 15  1  0  0  0  0
  6  7  2  0  0  0  0
  7  8  1  0  0  0  0
  7 16  1  0  0  0  0
  8 17  1  0  0  0  0
M  END
