
  xtb     02032211193D
 xtb: 6.4.1 (23d549d)
 21 21  0     0  0            999 V2000
    2.3665    0.9129   -0.5333 c   0  0  0  0  0  0  0  0  0  0  0  0
    2.0714   -0.3165   -0.1299 c   0  0  0  0  0  0  0  0  0  0  0  0
    2.9896   -1.2460    0.5179 c   0  0  0  0  0  0  0  0  0  0  0  0
    4.1738   -0.8270    1.1157 c   0  0  0  0  0  0  0  0  0  0  0  0
    5.0103   -1.7545    1.7015 c   0  0  0  0  0  0  0  0  0  0  0  0
    6.1655   -1.3333    2.2664 f   0  0  0  0  0  0  0  0  0  0  0  0
    4.7037   -3.0980    1.7303 c   0  0  0  0  0  0  0  0  0  0  0  0
    3.5044   -3.5407    1.1762 c   0  0  0  0  0  0  0  0  0  0  0  0
    3.1924   -4.9717    1.2536 c   0  0  0  0  0  0  0  0  0  0  0  0
    2.0021   -5.4994    1.5163 c   0  0  0  0  0  0  0  0  0  0  0  0
    2.6561   -2.6134    0.5543 c   0  0  0  0  0  0  0  0  0  0  0  0
    1.5151   -2.9984   -0.0719 o   0  0  0  0  0  0  0  0  0  0  0  0
    1.6280    1.5373   -1.0056 h   0  0  0  0  0  0  0  0  0  0  0  0
    3.3481    1.3423   -0.4245 h   0  0  0  0  0  0  0  0  0  0  0  0
    1.0796   -0.7129   -0.2972 h   0  0  0  0  0  0  0  0  0  0  0  0
    4.4439    0.2157    1.1314 h   0  0  0  0  0  0  0  0  0  0  0  0
    5.3773   -3.7960    2.2020 h   0  0  0  0  0  0  0  0  0  0  0  0
    4.0439   -5.6266    1.1176 h   0  0  0  0  0  0  0  0  0  0  0  0
    1.1329   -4.9025    1.7417 h   0  0  0  0  0  0  0  0  0  0  0  0
    1.8639   -6.5656    1.5720 h   0  0  0  0  0  0  0  0  0  0  0  0
    1.4528   -3.9639   -0.0537 h   0  0  0  0  0  0  0  0  0  0  0  0
  1  2  2  0  0  0  0
  2  3  1  0  0  0  0
  3  4  4  0  0  0  0
  4  5  4  0  0  0  0
  5  6  1  0  0  0  0
  5  7  4  0  0  0  0
  7  8  4  0  0  0  0
  8  9  1  0  0  0  0
  9 10  2  0  0  0  0
  3 11  4  0  0  0  0
  8 11  4  0  0  0  0
 11 12  1  0  0  0  0
  1 13  1  0  0  0  0
  1 14  1  0  0  0  0
  2 15  1  0  0  0  0
  4 16  1  0  0  0  0
  7 17  1  0  0  0  0
  9 18  1  0  0  0  0
 10 19  1  0  0  0  0
 10 20  1  0  0  0  0
 12 21  1  0  0  0  0
M  END
