
 OpenBabel02032211193D

 22 22  0  0  0  0  0  0  0  0999 V2000
    2.1766   -0.5234    1.2381 C   0  0  0  0  0  0  0  0  0  0  0  0
    2.0376   -0.1873   -0.0547 C   0  0  0  0  0  0  0  0  0  0  0  0
    2.8017   -0.7947   -1.2050 C   0  0  0  0  0  0  0  0  0  0  0  0
    3.8079   -1.7457   -0.9390 C   0  0  0  0  0  0  0  0  0  0  0  0
    4.5371   -2.3302   -1.9595 C   0  0  0  0  0  0  0  0  0  0  0  0
    5.4996   -3.2393   -1.6643 F   0  0  0  0  0  0  0  0  0  0  0  0
    4.2926   -1.9925   -3.2791 C   0  0  0  0  0  0  0  0  0  0  0  0
    3.3031   -1.0503   -3.6263 C   0  0  0  0  0  0  0  0  0  0  0  0
    3.0749   -0.7210   -5.0809 C   0  0  0  0  0  0  0  0  0  0  0  0
    3.7185   -1.2808   -6.1184 C   0  0  0  0  0  0  0  0  0  0  0  0
    2.5411   -0.4336   -2.5731 C   0  0  0  0  0  0  0  0  0  0  0  0
    1.5228    0.5249   -2.8848 N   0  0  0  0  0  0  0  0  0  0  0  0
    1.5706   -0.0203    1.9858 H   0  0  0  0  0  0  0  0  0  0  0  0
    2.8579   -1.2794    1.5994 H   0  0  0  0  0  0  0  0  0  0  0  0
    1.3028    0.5824   -0.2210 H   0  0  0  0  0  0  0  0  0  0  0  0
    4.0573   -2.0569    0.0615 H   0  0  0  0  0  0  0  0  0  0  0  0
    4.9005   -2.4888   -4.0165 H   0  0  0  0  0  0  0  0  0  0  0  0
    2.3454    0.0142   -5.3761 H   0  0  0  0  0  0  0  0  0  0  0  0
    4.4802   -2.0401   -6.0230 H   0  0  0  0  0  0  0  0  0  0  0  0
    3.4710   -0.9676   -7.1283 H   0  0  0  0  0  0  0  0  0  0  0  0
    1.2934    0.8152   -3.8382 H   0  0  0  0  0  0  0  0  0  0  0  0
    0.9425    0.9821   -2.1771 H   0  0  0  0  0  0  0  0  0  0  0  0
  1  2  2  0  0  0  0
  1 13  1  0  0  0  0
  1 14  1  0  0  0  0
  2  3  1  0  0  0  0
  2 15  1  0  0  0  0
  3  4  1  0  0  0  0
  3 11  2  0  0  0  0
  4  5  2  0  0  0  0
  4 16  1  0  0  0  0
  5  6  1  0  0  0  0
  5  7  1  0  0  0  0
  7  8  2  0  0  0  0
  7 17  1  0  0  0  0
  8  9  1  0  0  0  0
  8 11  1  0  0  0  0
  9 10  2  0  0  0  0
  9 18  1  0  0  0  0
 10 19  1  0  0  0  0
 10 20  1  0  0  0  0
 11 12  1  0  0  0  0
 12 21  1  0  0  0  0
 12 22  1  0  0  0  0
M  END
