
  xtb     02032210583D
 xtb: 6.4.1 (23d549d)
 21 23  0     0  0            999 V2000
    1.6546    0.5242   -0.9255 c   0  0  0  0  0  0  0  0  0  0  0  0
    2.1913    0.0007    0.1742 c   0  0  0  0  0  0  0  0  0  0  0  0
    2.8353   -1.2835    0.3178 c   0  0  0  0  0  0  0  0  0  0  0  0
    3.8165   -1.5035    1.7343 s   0  0  0  0  0  0  0  0  0  0  0  0
    4.1645   -3.1674    1.3763 c   0  0  0  0  0  0  0  0  0  0  0  0
    5.0767   -3.8406    2.2703 c   0  0  0  0  0  0  0  0  0  0  0  0
    5.2694   -5.1509    2.4022 c   0  0  0  0  0  0  0  0  0  0  0  0
    3.5321   -3.5239    0.2045 c   0  0  0  0  0  0  0  0  0  0  0  0
    3.6898   -4.7718   -0.5012 n   0  0  0  0  0  0  0  0  0  0  0  0
    3.5975   -5.8021    0.1191 o   0  0  0  0  0  0  0  0  0  0  0  0
    3.9275   -4.6741   -1.6832 o   0  0  0  0  0  0  0  0  0  0  0  0
    2.7946   -2.4617   -0.3966 c   0  0  0  0  0  0  0  0  0  0  0  0
    1.9732   -2.7276   -1.5520 n   0  0  0  0  0  0  0  0  0  0  0  0
    1.9660   -1.9256   -2.4529 o   0  0  0  0  0  0  0  0  0  0  0  0
    1.3272   -3.7493   -1.5062 o   0  0  0  0  0  0  0  0  0  0  0  0
    1.1997    1.4990   -0.8918 h   0  0  0  0  0  0  0  0  0  0  0  0
    1.6559    0.0213   -1.8766 h   0  0  0  0  0  0  0  0  0  0  0  0
    2.2017    0.5807    1.0896 h   0  0  0  0  0  0  0  0  0  0  0  0
    5.6200   -3.1555    2.9102 h   0  0  0  0  0  0  0  0  0  0  0  0
    4.7259   -5.8848    1.8334 h   0  0  0  0  0  0  0  0  0  0  0  0
    5.9889   -5.5214    3.1118 h   0  0  0  0  0  0  0  0  0  0  0  0
  1  2  2  0  0  0  0
  2  3  1  0  0  0  0
  3  4  1  0  0  0  0
  4  5  1  0  0  0  0
  5  6  1  0  0  0  0
  6  7  2  0  0  0  0
  5  8  4  0  0  0  0
  8  9  1  0  0  0  0
  9 10  4  0  0  0  0
  9 11  4  0  0  0  0
 10 11  1  0  0  0  0
  3 12  4  0  0  0  0
  8 12  4  0  0  0  0
 12 13  1  0  0  0  0
 13 14  4  0  0  0  0
 13 15  4  0  0  0  0
 14 15  1  0  0  0  0
  1 16  1  0  0  0  0
  1 17  1  0  0  0  0
  2 18  1  0  0  0  0
  6 19  1  0  0  0  0
  7 20  1  0  0  0  0
  7 21  1  0  0  0  0
M  END
