
 OpenBabel02032211243D

 23 23  0  0  0  0  0  0  0  0999 V2000
    2.0809    0.8266   -0.7746 C   0  0  0  0  0  0  0  0  0  0  0  0
    2.2939   -0.1000    0.1691 C   0  0  0  0  0  0  0  0  0  0  0  0
    3.0483    0.0665    1.3711 C   0  0  0  0  0  0  0  0  0  0  0  0
    2.8489   -0.6116    2.6066 C   0  0  0  0  0  0  0  0  0  0  0  0
    1.8147   -1.6093    2.9810 C   0  0  0  0  0  0  0  0  0  0  0  0
    3.7393   -0.2286    3.5298 N   0  0  0  0  0  0  0  0  0  0  0  0
    4.5010    0.6834    2.8961 N   0  0  0  0  0  0  0  0  0  0  0  0
    5.5793    1.3117    3.6263 C   0  0  0  0  0  0  0  0  0  0  0  0
    4.1343    0.8984    1.5878 C   0  0  0  0  0  0  0  0  0  0  0  0
    4.8421    1.8372    0.8007 C   0  0  0  0  0  0  0  0  0  0  0  0
    5.8843    1.4523    0.0558 C   0  0  0  0  0  0  0  0  0  0  0  0
    1.4823    0.5947   -1.6493 H   0  0  0  0  0  0  0  0  0  0  0  0
    2.4765    1.8327   -0.6990 H   0  0  0  0  0  0  0  0  0  0  0  0
    1.8298   -1.0729    0.0176 H   0  0  0  0  0  0  0  0  0  0  0  0
    1.1545   -1.8541    2.1445 H   0  0  0  0  0  0  0  0  0  0  0  0
    1.1914   -1.2216    3.7940 H   0  0  0  0  0  0  0  0  0  0  0  0
    2.2842   -2.5382    3.3212 H   0  0  0  0  0  0  0  0  0  0  0  0
    5.6161    0.9085    4.6421 H   0  0  0  0  0  0  0  0  0  0  0  0
    5.3903    2.3872    3.6640 H   0  0  0  0  0  0  0  0  0  0  0  0
    6.5202    1.0966    3.1142 H   0  0  0  0  0  0  0  0  0  0  0  0
    4.5079    2.8713    0.7950 H   0  0  0  0  0  0  0  0  0  0  0  0
    6.2271    0.4211    0.0310 H   0  0  0  0  0  0  0  0  0  0  0  0
    6.4162    2.1699   -0.5606 H   0  0  0  0  0  0  0  0  0  0  0  0
  1  2  2  0  0  0  0
  1 12  1  0  0  0  0
  1 13  1  0  0  0  0
  2  3  1  0  0  0  0
  2 14  1  0  0  0  0
  3  4  1  0  0  0  0
  3  9  2  0  0  0  0
  4  5  1  0  0  0  0
  4  6  2  0  0  0  0
  5 15  1  0  0  0  0
  5 16  1  0  0  0  0
  5 17  1  0  0  0  0
  6  7  1  0  0  0  0
  7  8  1  0  0  0  0
  7  9  1  0  0  0  0
  8 18  1  0  0  0  0
  8 19  1  0  0  0  0
  8 20  1  0  0  0  0
  9 10  1  0  0  0  0
 10 11  2  0  0  0  0
 10 21  1  0  0  0  0
 11 22  1  0  0  0  0
 11 23  1  0  0  0  0
M  END
