
 OpenBabel02012214123D

 19 20  0  0  0  0  0  0  0  0999 V2000
    0.9987   -0.0554    0.0988 C   0  0  0  0  0  0  0  0  0  0  0  0
    2.5039    0.0006    0.0986 C   0  0  0  0  0  0  0  0  0  0  0  0
    3.2355   -1.2047    0.0984 C   0  0  0  0  0  0  0  0  0  0  0  0
    4.6270   -1.1624    0.0983 C   0  0  0  0  0  0  0  0  0  0  0  0
    5.4115   -2.2692    0.0981 N   0  0  0  0  0  0  0  0  0  0  0  0
    6.9323   -1.6198    0.0979 S   0  0  0  0  0  0  0  0  0  0  0  0
    6.6650    0.0122    0.0979 N   0  0  0  0  0  0  0  0  0  0  0  0
    5.3100    0.0806    0.0978 C   0  0  0  0  0  0  0  0  0  0  0  0
    4.5995    1.2779    0.0983 C   0  0  0  0  0  0  0  0  0  0  0  0
    3.1898    1.2491    0.0984 C   0  0  0  0  0  0  0  0  0  0  0  0
    2.4298    2.5496    0.0987 C   0  0  0  0  0  0  0  0  0  0  0  0
    0.6251   -1.1013    0.0990 H   0  0  0  0  0  0  0  0  0  0  0  0
    0.6032    0.4504   -0.8067 H   0  0  0  0  0  0  0  0  0  0  0  0
    0.6033    0.4508    1.0041 H   0  0  0  0  0  0  0  0  0  0  0  0
    2.7295   -2.1626    0.0986 H   0  0  0  0  0  0  0  0  0  0  0  0
    5.1366    2.2187    0.0982 H   0  0  0  0  0  0  0  0  0  0  0  0
    3.1125    3.4256    0.0982 H   0  0  0  0  0  0  0  0  0  0  0  0
    1.7912    2.6122    1.0044 H   0  0  0  0  0  0  0  0  0  0  0  0
    1.7903    2.6119   -0.8065 H   0  0  0  0  0  0  0  0  0  0  0  0
  1  2  1  0  0  0  0
  1 12  1  0  0  0  0
  1 13  1  0  0  0  0
  1 14  1  0  0  0  0
  2  3  2  0  0  0  0
  2 10  1  0  0  0  0
  3  4  1  0  0  0  0
  3 15  1  0  0  0  0
  4  5  2  0  0  0  0
  4  8  1  0  0  0  0
  5  6  1  0  0  0  0
  6  7  1  0  0  0  0
  7  8  2  0  0  0  0
  8  9  1  0  0  0  0
  9 10  2  0  0  0  0
  9 16  1  0  0  0  0
 10 11  1  0  0  0  0
 11 17  1  0  0  0  0
 11 18  1  0  0  0  0
 11 19  1  0  0  0  0
M  END
