
 OpenBabel02012214133D

 40 40  0  0  0  0  0  0  0  0999 V2000
    2.2202    1.1084    1.1626 C   0  0  0  0  0  0  0  0  0  0  0  0
    1.0848    0.3575    0.5295 C   0  0  0  0  0  0  0  0  0  0  0  0
    0.0321    1.0269   -0.1028 C   0  0  0  0  0  0  0  0  0  0  0  0
   -1.0231    0.3070   -0.6803 C   0  0  0  0  0  0  0  0  0  0  0  0
   -2.1585    1.0151   -1.3580 C   0  0  0  0  0  0  0  0  0  0  0  0
   -1.0086   -1.0934   -0.6182 C   0  0  0  0  0  0  0  0  0  0  0  0
    0.0444   -1.7746   -0.0068 C   0  0  0  0  0  0  0  0  0  0  0  0
   -0.0580   -3.1417   -0.0053 O   0  0  0  0  0  0  0  0  0  0  0  0
    1.1832   -3.8495   -0.0060 C   0  0  0  0  0  0  0  0  0  0  0  0
    0.8957   -5.3495   -0.0163 C   0  0  0  0  0  0  0  0  0  0  0  0
    2.1949   -6.1539   -0.0186 C   0  0  0  0  0  0  0  0  0  0  0  0
    1.9287   -7.6601   -0.0265 C   0  0  0  0  0  0  0  0  0  0  0  0
    3.2432   -8.4388   -0.0288 C   0  0  0  0  0  0  0  0  0  0  0  0
    3.0247   -9.9516   -0.0365 C   0  0  0  0  0  0  0  0  0  0  0  0
    4.3492  -10.6848   -0.0367 C   0  0  0  0  0  0  0  0  0  0  0  0
    5.4466  -10.1566   -0.0318 O   0  0  0  0  0  0  0  0  0  0  0  0
    4.2005  -12.0298   -0.0422 O   0  0  0  0  0  0  0  0  0  0  0  0
    1.0824   -1.0443    0.5759 C   0  0  0  0  0  0  0  0  0  0  0  0
    2.1091    2.1906    1.0407 H   0  0  0  0  0  0  0  0  0  0  0  0
    3.1680    0.8122    0.7011 H   0  0  0  0  0  0  0  0  0  0  0  0
    2.2612    0.8903    2.2347 H   0  0  0  0  0  0  0  0  0  0  0  0
    0.0299    2.1141   -0.1450 H   0  0  0  0  0  0  0  0  0  0  0  0
   -2.0404    2.1026   -1.3101 H   0  0  0  0  0  0  0  0  0  0  0  0
   -3.1056    0.7601   -0.8716 H   0  0  0  0  0  0  0  0  0  0  0  0
   -2.2066    0.7289   -2.4136 H   0  0  0  0  0  0  0  0  0  0  0  0
   -1.8184   -1.6655   -1.0674 H   0  0  0  0  0  0  0  0  0  0  0  0
    1.7617   -3.6133    0.8937 H   0  0  0  0  0  0  0  0  0  0  0  0
    1.7587   -3.5866   -0.9021 H   0  0  0  0  0  0  0  0  0  0  0  0
    0.2894   -5.6021   -0.8948 H   0  0  0  0  0  0  0  0  0  0  0  0
    0.2875   -5.6114    0.8587 H   0  0  0  0  0  0  0  0  0  0  0  0
    2.7900   -5.8912    0.8649 H   0  0  0  0  0  0  0  0  0  0  0  0
    2.7923   -5.8822   -0.8979 H   0  0  0  0  0  0  0  0  0  0  0  0
    1.3389   -7.9251   -0.9120 H   0  0  0  0  0  0  0  0  0  0  0  0
    1.3368   -7.9339    0.8549 H   0  0  0  0  0  0  0  0  0  0  0  0
    3.8341   -8.1606    0.8530 H   0  0  0  0  0  0  0  0  0  0  0  0
    3.8361   -8.1522   -0.9067 H   0  0  0  0  0  0  0  0  0  0  0  0
    2.4656  -10.2438   -0.9319 H   0  0  0  0  0  0  0  0  0  0  0  0
    2.4621  -10.2519    0.8540 H   0  0  0  0  0  0  0  0  0  0  0  0
    3.2699  -12.3273   -0.0449 H   0  0  0  0  0  0  0  0  0  0  0  0
    1.9065   -1.5355    1.0810 H   0  0  0  0  0  0  0  0  0  0  0  0
  1  2  1  0  0  0  0
  1 19  1  0  0  0  0
  1 20  1  0  0  0  0
  1 21  1  0  0  0  0
  2  3  1  0  0  0  0
  2 18  2  0  0  0  0
  3  4  2  0  0  0  0
  3 22  1  0  0  0  0
  4  5  1  0  0  0  0
  4  6  1  0  0  0  0
  5 23  1  0  0  0  0
  5 24  1  0  0  0  0
  5 25  1  0  0  0  0
  6  7  2  0  0  0  0
  6 26  1  0  0  0  0
  7  8  1  0  0  0  0
  7 18  1  0  0  0  0
  8  9  1  0  0  0  0
  9 10  1  0  0  0  0
  9 27  1  0  0  0  0
  9 28  1  0  0  0  0
 10 11  1  0  0  0  0
 10 29  1  0  0  0  0
 10 30  1  0  0  0  0
 11 12  1  0  0  0  0
 11 31  1  0  0  0  0
 11 32  1  0  0  0  0
 12 13  1  0  0  0  0
 12 33  1  0  0  0  0
 12 34  1  0  0  0  0
 13 14  1  0  0  0  0
 13 35  1  0  0  0  0
 13 36  1  0  0  0  0
 14 15  1  0  0  0  0
 14 37  1  0  0  0  0
 14 38  1  0  0  0  0
 15 16  2  0  0  0  0
 15 17  1  0  0  0  0
 17 39  1  0  0  0  0
 18 40  1  0  0  0  0
M  END
