
  xtb     02012214133D
 xtb: 6.4.1 (23d549d)
 40 40  0     0  0            999 V2000
   -4.7712   -3.4501   -1.2780 c   0  0  0  0  0  0  0  0  0  0  0  0
   -3.5152   -3.6588   -0.4877 c   0  0  0  0  0  0  0  0  0  0  0  0
   -3.5886   -3.9753    0.8645 c   0  0  0  0  0  0  0  0  0  0  0  0
   -2.4396   -4.1667    1.6133 c   0  0  0  0  0  0  0  0  0  0  0  0
   -2.5442   -4.5047    3.0730 c   0  0  0  0  0  0  0  0  0  0  0  0
   -1.1959   -4.0509    1.0038 c   0  0  0  0  0  0  0  0  0  0  0  0
   -1.1035   -3.7332   -0.3460 c   0  0  0  0  0  0  0  0  0  0  0  0
    0.0558   -3.5610   -1.0439 o   0  0  0  0  0  0  0  0  0  0  0  0
    1.2902   -3.8689   -0.4337 c   0  0  0  0  0  0  0  0  0  0  0  0
    1.5369   -5.3797   -0.3659 c   0  0  0  0  0  0  0  0  0  0  0  0
    2.7667   -5.7465    0.4656 c   0  0  0  0  0  0  0  0  0  0  0  0
    2.5717   -5.6075    1.9775 c   0  0  0  0  0  0  0  0  0  0  0  0
    1.6218   -6.6577    2.5521 c   0  0  0  0  0  0  0  0  0  0  0  0
    1.4418   -6.4822    4.0649 c   0  0  0  0  0  0  0  0  0  0  0  0
    0.4808   -7.5233    4.6086 c   0  0  0  0  0  0  0  0  0  0  0  0
    0.8056   -8.4400    5.3038 o   0  0  0  0  0  0  0  0  0  0  0  0
   -0.8004   -7.3585    4.2352 o   0  0  0  0  0  0  0  0  0  0  0  0
   -2.2727   -3.5397   -1.0815 c   0  0  0  0  0  0  0  0  0  0  0  0
   -5.3774   -4.3550   -1.2704 h   0  0  0  0  0  0  0  0  0  0  0  0
   -4.5444   -3.1916   -2.3086 h   0  0  0  0  0  0  0  0  0  0  0  0
   -5.3650   -2.6493   -0.8396 h   0  0  0  0  0  0  0  0  0  0  0  0
   -4.5550   -4.0690    1.3383 h   0  0  0  0  0  0  0  0  0  0  0  0
   -3.2923   -3.8782    3.5536 h   0  0  0  0  0  0  0  0  0  0  0  0
   -1.5947   -4.3501    3.5824 h   0  0  0  0  0  0  0  0  0  0  0  0
   -2.8582   -5.5415    3.2022 h   0  0  0  0  0  0  0  0  0  0  0  0
   -0.3096   -4.1950    1.6024 h   0  0  0  0  0  0  0  0  0  0  0  0
    1.3550   -3.4078    0.5588 h   0  0  0  0  0  0  0  0  0  0  0  0
    2.0421   -3.3968   -1.0724 h   0  0  0  0  0  0  0  0  0  0  0  0
    1.6683   -5.7453   -1.3858 h   0  0  0  0  0  0  0  0  0  0  0  0
    0.6464   -5.8667    0.0343 h   0  0  0  0  0  0  0  0  0  0  0  0
    3.5989   -5.1103    0.1565 h   0  0  0  0  0  0  0  0  0  0  0  0
    3.0427   -6.7799    0.2467 h   0  0  0  0  0  0  0  0  0  0  0  0
    2.2003   -4.6085    2.2151 h   0  0  0  0  0  0  0  0  0  0  0  0
    3.5431   -5.7133    2.4643 h   0  0  0  0  0  0  0  0  0  0  0  0
    2.0227   -7.6540    2.3558 h   0  0  0  0  0  0  0  0  0  0  0  0
    0.6511   -6.5905    2.0545 h   0  0  0  0  0  0  0  0  0  0  0  0
    1.0578   -5.4815    4.2841 h   0  0  0  0  0  0  0  0  0  0  0  0
    2.4001   -6.6040    4.5699 h   0  0  0  0  0  0  0  0  0  0  0  0
   -0.9280   -6.5785    3.6757 h   0  0  0  0  0  0  0  0  0  0  0  0
   -2.1775   -3.2890   -2.1264 h   0  0  0  0  0  0  0  0  0  0  0  0
  1  2  1  0  0  0  0
  2  3  4  0  0  0  0
  3  4  4  0  0  0  0
  4  5  1  0  0  0  0
  4  6  4  0  0  0  0
  6  7  4  0  0  0  0
  7  8  1  0  0  0  0
  8  9  1  0  0  0  0
  9 10  1  0  0  0  0
 10 11  1  0  0  0  0
 11 12  1  0  0  0  0
 12 13  1  0  0  0  0
 13 14  1  0  0  0  0
 14 15  1  0  0  0  0
 15 16  2  0  0  0  0
 15 17  1  0  0  0  0
  2 18  4  0  0  0  0
  7 18  4  0  0  0  0
  1 19  1  0  0  0  0
  1 20  1  0  0  0  0
  1 21  1  0  0  0  0
  3 22  1  0  0  0  0
  5 23  1  0  0  0  0
  5 24  1  0  0  0  0
  5 25  1  0  0  0  0
  6 26  1  0  0  0  0
  9 27  1  0  0  0  0
  9 28  1  0  0  0  0
 10 29  1  0  0  0  0
 10 30  1  0  0  0  0
 11 31  1  0  0  0  0
 11 32  1  0  0  0  0
 12 33  1  0  0  0  0
 12 34  1  0  0  0  0
 13 35  1  0  0  0  0
 13 36  1  0  0  0  0
 14 37  1  0  0  0  0
 14 38  1  0  0  0  0
 17 39  1  0  0  0  0
 18 40  1  0  0  0  0
M  END
