
  xtb     02032211353D
 xtb: 6.4.1 (23d549d)
 20 20  0     0  0            999 V2000
   -3.8819   -0.5335    0.1602 C   0  0  0  0  0  0  0  0  0  0  0  0
   -2.8184    0.1076   -0.3057 C   0  0  0  0  0  0  0  0  0  0  0  0
   -1.4428   -0.3310   -0.1266 C   0  0  0  0  0  0  0  0  0  0  0  0
   -1.0755   -1.6434   -0.0174 C   0  0  0  0  0  0  0  0  0  0  0  0
    0.6134   -1.8674    0.0806 S   0  0  0  0  0  0  0  0  0  0  0  0
    0.8827   -0.1481   -0.0311 C   0  0  0  0  0  0  0  0  0  0  0  0
    2.2353    0.4178   -0.0041 C   0  0  0  0  0  0  0  0  0  0  0  0
    2.4562    1.6006   -0.0291 O   0  0  0  0  0  0  0  0  0  0  0  0
    3.2544   -0.4620    0.0431 O   0  0  0  0  0  0  0  0  0  0  0  0
   -0.3094    0.5440   -0.1280 C   0  0  0  0  0  0  0  0  0  0  0  0
   -0.3852    1.9927   -0.2044 C   0  0  0  0  0  0  0  0  0  0  0  0
   -1.3270    2.7195    0.3846 C   0  0  0  0  0  0  0  0  0  0  0  0
   -4.8793   -0.1720   -0.0194 H   0  0  0  0  0  0  0  0  0  0  0  0
   -3.7973   -1.4305    0.7503 H   0  0  0  0  0  0  0  0  0  0  0  0
   -2.9350    1.0247   -0.8677 H   0  0  0  0  0  0  0  0  0  0  0  0
   -1.7132   -2.5052   -0.0179 H   0  0  0  0  0  0  0  0  0  0  0  0
    2.9646   -1.3837    0.0580 H   0  0  0  0  0  0  0  0  0  0  0  0
    0.4243    2.4705   -0.7374 H   0  0  0  0  0  0  0  0  0  0  0  0
   -2.1020    2.2787    0.9904 H   0  0  0  0  0  0  0  0  0  0  0  0
   -1.3312    3.7928    0.3057 H   0  0  0  0  0  0  0  0  0  0  0  0
  1  2  2  0  0  0  0
  2  3  1  0  0  0  0
  3  4  2  0  0  0  0
  4  5  1  0  0  0  0
  5  6  1  0  0  0  0
  6  7  1  0  0  0  0
  7  8  2  0  0  0  0
  7  9  1  0  0  0  0
  3 10  4  0  0  0  0
  6 10  4  0  0  0  0
 10 11  1  0  0  0  0
 11 12  2  0  0  0  0
  1 13  1  0  0  0  0
  1 14  1  0  0  0  0
  2 15  1  0  0  0  0
  4 16  1  0  0  0  0
  9 17  1  0  0  0  0
 11 18  1  0  0  0  0
 12 19  1  0  0  0  0
 12 20  1  0  0  0  0
M  END
