
  xtb     02032211353D
 xtb: 6.4.1 (23d549d)
 23 24  0     0  0            999 V2000
    3.5022    1.4418    0.0297 C   0  0  0  0  0  0  0  0  0  0  0  0
    2.7851    0.3480   -0.2115 C   0  0  0  0  0  0  0  0  0  0  0  0
    1.3550    0.2620   -0.0811 C   0  0  0  0  0  0  0  0  0  0  0  0
    0.4039    1.7304    0.0426 S   0  0  0  0  0  0  0  0  0  0  0  0
   -1.0749    0.8180    0.0254 C   0  0  0  0  0  0  0  0  0  0  0  0
   -2.3612    1.3294    0.1001 C   0  0  0  0  0  0  0  0  0  0  0  0
   -3.4202    0.4460    0.0730 C   0  0  0  0  0  0  0  0  0  0  0  0
   -3.1981   -0.9274   -0.0207 C   0  0  0  0  0  0  0  0  0  0  0  0
   -1.9201   -1.4354   -0.0894 C   0  0  0  0  0  0  0  0  0  0  0  0
   -0.8291   -0.5636   -0.0750 C   0  0  0  0  0  0  0  0  0  0  0  0
    0.5732   -0.8666   -0.1251 C   0  0  0  0  0  0  0  0  0  0  0  0
    1.0644   -2.2323   -0.2045 C   0  0  0  0  0  0  0  0  0  0  0  0
    2.1309   -2.7050    0.4282 C   0  0  0  0  0  0  0  0  0  0  0  0
    4.5695    1.4583   -0.1035 H   0  0  0  0  0  0  0  0  0  0  0  0
    3.0414    2.3531    0.3741 H   0  0  0  0  0  0  0  0  0  0  0  0
    3.2680   -0.5612   -0.5458 H   0  0  0  0  0  0  0  0  0  0  0  0
   -2.5205    2.3938    0.1774 H   0  0  0  0  0  0  0  0  0  0  0  0
   -4.4311    0.8210    0.1274 H   0  0  0  0  0  0  0  0  0  0  0  0
   -4.0428   -1.6000   -0.0361 H   0  0  0  0  0  0  0  0  0  0  0  0
   -1.7573   -2.5008   -0.1516 H   0  0  0  0  0  0  0  0  0  0  0  0
    0.4643   -2.8972   -0.8137 H   0  0  0  0  0  0  0  0  0  0  0  0
    2.7213   -2.0940    1.0900 H   0  0  0  0  0  0  0  0  0  0  0  0
    2.4351   -3.7328    0.3250 H   0  0  0  0  0  0  0  0  0  0  0  0
  1  2  2  0  0  0  0
  2  3  1  0  0  0  0
  3  4  1  0  0  0  0
  4  5  1  0  0  0  0
  5  6  4  0  0  0  0
  6  7  4  0  0  0  0
  7  8  4  0  0  0  0
  8  9  4  0  0  0  0
  5 10  4  0  0  0  0
  9 10  4  0  0  0  0
  3 11  2  0  0  0  0
 10 11  1  0  0  0  0
 11 12  1  0  0  0  0
 12 13  2  0  0  0  0
  1 14  1  0  0  0  0
  1 15  1  0  0  0  0
  2 16  1  0  0  0  0
  6 17  1  0  0  0  0
  7 18  1  0  0  0  0
  8 19  1  0  0  0  0
  9 20  1  0  0  0  0
 12 21  1  0  0  0  0
 13 22  1  0  0  0  0
 13 23  1  0  0  0  0
M  END
