 xtb: 6.5.0 (unknown)
          08122213083D

 23  0  0     0  0            999 V2000
   -4.1862    0.7483    0.1525 C   0  0  0  0  0  0  0  0  0  0  0  0
   -2.9279    0.9069   -0.2320 C   0  0  0  0  0  0  0  0  0  0  0  0
   -1.8824   -0.1099   -0.0854 C   0  0  0  0  0  0  0  0  0  0  0  0
   -2.1964   -1.4511   -0.2825 C   0  0  0  0  0  0  0  0  0  0  0  0
   -1.2272   -2.4293   -0.1634 C   0  0  0  0  0  0  0  0  0  0  0  0
    0.0725   -2.0688    0.1265 C   0  0  0  0  0  0  0  0  0  0  0  0
    0.4168   -0.7278    0.2979 C   0  0  0  0  0  0  0  0  0  0  0  0
    1.8325   -0.4420    0.5588 C   0  0  0  0  0  0  0  0  0  0  0  0
    2.5664    0.4683   -0.0551 C   0  0  0  0  0  0  0  0  0  0  0  0
    2.1714    1.3078   -1.0053 F   0  0  0  0  0  0  0  0  0  0  0  0
    3.8627    0.6654    0.1873 F   0  0  0  0  0  0  0  0  0  0  0  0
   -0.5664    0.2628    0.2267 C   0  0  0  0  0  0  0  0  0  0  0  0
   -0.2607    1.6959    0.5444 C   0  0  0  0  0  0  0  0  0  0  0  0
   -4.9242    1.5187    0.0075 H   0  0  0  0  0  0  0  0  0  0  0  0
   -4.5243   -0.1489    0.6441 H   0  0  0  0  0  0  0  0  0  0  0  0
   -2.6224    1.8354   -0.6960 H   0  0  0  0  0  0  0  0  0  0  0  0
   -3.2087   -1.7223   -0.5412 H   0  0  0  0  0  0  0  0  0  0  0  0
   -1.4828   -3.4687   -0.3054 H   0  0  0  0  0  0  0  0  0  0  0  0
    0.8414   -2.8234    0.2040 H   0  0  0  0  0  0  0  0  0  0  0  0
    2.3472   -1.0794    1.2629 H   0  0  0  0  0  0  0  0  0  0  0  0
   -0.1059    2.2690   -0.3699 H   0  0  0  0  0  0  0  0  0  0  0  0
    0.6384    1.7786    1.1503 H   0  0  0  0  0  0  0  0  0  0  0  0
   -1.0862    2.1440    1.0931 H   0  0  0  0  0  0  0  0  0  0  0  0
M  END
