 xtb: 6.5.0 (unknown)
          08112218543D

 26  0  0     0  0            999 V2000
   -4.5813   -0.4804   -0.1993 C   0  0  0  0  0  0  0  0  0  0  0  0
   -3.6351    0.3471    0.2247 C   0  0  0  0  0  0  0  0  0  0  0  0
   -2.1988    0.1096    0.1016 C   0  0  0  0  0  0  0  0  0  0  0  0
   -1.6924   -1.1876    0.1436 C   0  0  0  0  0  0  0  0  0  0  0  0
   -0.3417   -1.4665    0.0394 C   0  0  0  0  0  0  0  0  0  0  0  0
    0.1306   -2.8884    0.1101 C   0  0  0  0  0  0  0  0  0  0  0  0
    0.5549   -0.3966   -0.1105 C   0  0  0  0  0  0  0  0  0  0  0  0
    1.9816   -0.6604   -0.2352 C   0  0  0  0  0  0  0  0  0  0  0  0
    2.9816    0.1807   -0.0219 C   0  0  0  0  0  0  0  0  0  0  0  0
    2.9219    1.4471    0.3767 F   0  0  0  0  0  0  0  0  0  0  0  0
    4.2634   -0.1600   -0.1725 F   0  0  0  0  0  0  0  0  0  0  0  0
    0.0499    0.9030   -0.1539 C   0  0  0  0  0  0  0  0  0  0  0  0
   -1.3017    1.1769   -0.0479 C   0  0  0  0  0  0  0  0  0  0  0  0
   -1.7823    2.5951   -0.1197 C   0  0  0  0  0  0  0  0  0  0  0  0
   -5.6264   -0.2532   -0.0758 H   0  0  0  0  0  0  0  0  0  0  0  0
   -4.3531   -1.4048   -0.7030 H   0  0  0  0  0  0  0  0  0  0  0  0
   -3.9203    1.2810    0.6905 H   0  0  0  0  0  0  0  0  0  0  0  0
   -2.3831   -2.0061    0.2847 H   0  0  0  0  0  0  0  0  0  0  0  0
   -0.7068   -3.5547    0.3009 H   0  0  0  0  0  0  0  0  0  0  0  0
    0.8602   -3.0170    0.9082 H   0  0  0  0  0  0  0  0  0  0  0  0
    0.5951   -3.1895   -0.8289 H   0  0  0  0  0  0  0  0  0  0  0  0
    2.2820   -1.6550   -0.5269 H   0  0  0  0  0  0  0  0  0  0  0  0
    0.7309    1.7285   -0.2887 H   0  0  0  0  0  0  0  0  0  0  0  0
   -0.9549    3.2670   -0.3327 H   0  0  0  0  0  0  0  0  0  0  0  0
   -2.2303    2.8968    0.8272 H   0  0  0  0  0  0  0  0  0  0  0  0
   -2.5338    2.7089   -0.8996 H   0  0  0  0  0  0  0  0  0  0  0  0
M  END
