
  xtb     02032211353D
 xtb: 6.4.1 (23d549d)
 26 26  0     0  0            999 V2000
    2.2104   -3.0356   -0.0089 C   0  0  0  0  0  0  0  0  0  0  0  0
    2.4893   -1.8049    0.3990 C   0  0  0  0  0  0  0  0  0  0  0  0
    1.6418   -0.6347    0.1626 C   0  0  0  0  0  0  0  0  0  0  0  0
    0.2576   -0.7814    0.1748 C   0  0  0  0  0  0  0  0  0  0  0  0
   -0.5514    0.3220   -0.0035 C   0  0  0  0  0  0  0  0  0  0  0  0
   -1.9689    0.2782   -0.0038 O   0  0  0  0  0  0  0  0  0  0  0  0
   -2.5915   -0.8724    0.0351 C   0  0  0  0  0  0  0  0  0  0  0  0
   -2.4151   -1.5723    1.1748 F   0  0  0  0  0  0  0  0  0  0  0  0
   -3.9021   -0.6620   -0.0717 F   0  0  0  0  0  0  0  0  0  0  0  0
   -2.2612   -1.7263   -0.9548 F   0  0  0  0  0  0  0  0  0  0  0  0
   -0.0057    1.5783   -0.1912 C   0  0  0  0  0  0  0  0  0  0  0  0
    1.3719    1.7540   -0.2167 C   0  0  0  0  0  0  0  0  0  0  0  0
    1.9226    3.0889   -0.4545 C   0  0  0  0  0  0  0  0  0  0  0  0
    1.3799    4.2182   -0.0210 C   0  0  0  0  0  0  0  0  0  0  0  0
    2.2139    0.6359   -0.0432 C   0  0  0  0  0  0  0  0  0  0  0  0
    3.5799    0.7852   -0.0060 N   0  0  0  0  0  0  0  0  0  0  0  0
    2.8592   -3.8648    0.2147 H   0  0  0  0  0  0  0  0  0  0  0  0
    1.3329   -3.2601   -0.5914 H   0  0  0  0  0  0  0  0  0  0  0  0
    3.3944   -1.6236    0.9656 H   0  0  0  0  0  0  0  0  0  0  0  0
   -0.1498   -1.7631    0.3511 H   0  0  0  0  0  0  0  0  0  0  0  0
   -0.6657    2.4157   -0.3420 H   0  0  0  0  0  0  0  0  0  0  0  0
    2.8319    3.1384   -1.0432 H   0  0  0  0  0  0  0  0  0  0  0  0
    0.4918    4.2258    0.5871 H   0  0  0  0  0  0  0  0  0  0  0  0
    1.8150    5.1769   -0.2452 H   0  0  0  0  0  0  0  0  0  0  0  0
    3.9550    1.6587   -0.3333 H   0  0  0  0  0  0  0  0  0  0  0  0
    4.1350   -0.0259   -0.2177 H   0  0  0  0  0  0  0  0  0  0  0  0
  1  2  2  0  0  0  0
  2  3  1  0  0  0  0
  3  4  4  0  0  0  0
  4  5  4  0  0  0  0
  5  6  1  0  0  0  0
  6  7  1  0  0  0  0
  7  8  1  0  0  0  0
  7  9  1  0  0  0  0
  7 10  1  0  0  0  0
  5 11  4  0  0  0  0
 11 12  4  0  0  0  0
 12 13  1  0  0  0  0
 13 14  2  0  0  0  0
  3 15  4  0  0  0  0
 12 15  4  0  0  0  0
 15 16  1  0  0  0  0
  1 17  1  0  0  0  0
  1 18  1  0  0  0  0
  2 19  1  0  0  0  0
  4 20  1  0  0  0  0
 11 21  1  0  0  0  0
 13 22  1  0  0  0  0
 14 23  1  0  0  0  0
 14 24  1  0  0  0  0
 16 25  1  0  0  0  0
 16 26  1  0  0  0  0
M  END
