
  xtb     02012213463D
 xtb: 6.4.1 (23d549d)
 17 17  0     0  0            999 V2000
   -2.8349    0.0117   -0.0256 c   0  0  0  0  0  0  0  0  0  0  0  0
   -1.3381    0.0469   -0.0244 c   0  0  0  0  0  0  0  0  0  0  0  0
   -0.7091   -1.1187   -0.0183 n   0  0  0  0  0  0  0  0  0  0  0  0
    0.6124   -1.1341   -0.0174 c   0  0  0  0  0  0  0  0  0  0  0  0
    1.4050    0.0058   -0.0226 c   0  0  0  0  0  0  0  0  0  0  0  0
    2.8995   -0.0657   -0.0218 c   0  0  0  0  0  0  0  0  0  0  0  0
    0.7396    1.2295   -0.0287 c   0  0  0  0  0  0  0  0  0  0  0  0
   -0.6410    1.2543   -0.0295 c   0  0  0  0  0  0  0  0  0  0  0  0
   -3.1731   -1.0200   -0.0206 h   0  0  0  0  0  0  0  0  0  0  0  0
   -3.2247    0.5133   -0.9100 h   0  0  0  0  0  0  0  0  0  0  0  0
   -3.2264    0.5225    0.8527 h   0  0  0  0  0  0  0  0  0  0  0  0
    1.0615   -2.1201   -0.0123 h   0  0  0  0  0  0  0  0  0  0  0  0
    3.2371   -1.0990   -0.0160 h   0  0  0  0  0  0  0  0  0  0  0  0
    3.3028    0.4387    0.8557 h   0  0  0  0  0  0  0  0  0  0  0  0
    3.3030    0.4289   -0.9049 h   0  0  0  0  0  0  0  0  0  0  0  0
    1.3054    2.1514   -0.0327 h   0  0  0  0  0  0  0  0  0  0  0  0
   -1.1787    2.1910   -0.0342 h   0  0  0  0  0  0  0  0  0  0  0  0
  1  2  1  0  0  0  0
  2  3  4  0  0  0  0
  3  4  4  0  0  0  0
  4  5  4  0  0  0  0
  5  6  1  0  0  0  0
  5  7  4  0  0  0  0
  2  8  4  0  0  0  0
  7  8  4  0  0  0  0
  1  9  1  0  0  0  0
  1 10  1  0  0  0  0
  1 11  1  0  0  0  0
  4 12  1  0  0  0  0
  6 13  1  0  0  0  0
  6 14  1  0  0  0  0
  6 15  1  0  0  0  0
  7 16  1  0  0  0  0
  8 17  1  0  0  0  0
M  END
