
  xtb     02032211353D
 xtb: 6.4.1 (23d549d)
 24 24  0     0  0            999 V2000
   -3.1295   -0.5886    0.8549 C   0  0  0  0  0  0  0  0  0  0  0  0
   -2.6049    0.2037   -0.0666 C   0  0  0  0  0  0  0  0  0  0  0  0
   -1.1902    0.5875   -0.1386 C   0  0  0  0  0  0  0  0  0  0  0  0
   -0.9036    1.9426   -0.3079 C   0  0  0  0  0  0  0  0  0  0  0  0
    0.3972    2.3962   -0.2800 C   0  0  0  0  0  0  0  0  0  0  0  0
    1.4446    1.5095   -0.0877 C   0  0  0  0  0  0  0  0  0  0  0  0
    1.1821    0.1547    0.0552 C   0  0  0  0  0  0  0  0  0  0  0  0
    2.1460   -0.7995    0.2178 O   0  0  0  0  0  0  0  0  0  0  0  0
    3.4913   -0.3975    0.2707 C   0  0  0  0  0  0  0  0  0  0  0  0
   -0.1421   -0.3234    0.0157 C   0  0  0  0  0  0  0  0  0  0  0  0
   -0.3327   -1.7759    0.0914 C   0  0  0  0  0  0  0  0  0  0  0  0
   -1.1008   -2.4781   -0.7264 C   0  0  0  0  0  0  0  0  0  0  0  0
   -4.1859   -0.7942    0.8909 H   0  0  0  0  0  0  0  0  0  0  0  0
   -2.5211   -1.0642    1.6054 H   0  0  0  0  0  0  0  0  0  0  0  0
   -3.2496    0.6944   -0.7863 H   0  0  0  0  0  0  0  0  0  0  0  0
   -1.7177    2.6405   -0.4380 H   0  0  0  0  0  0  0  0  0  0  0  0
    0.6086    3.4481   -0.4038 H   0  0  0  0  0  0  0  0  0  0  0  0
    2.4551    1.8853   -0.0623 H   0  0  0  0  0  0  0  0  0  0  0  0
    4.0652   -1.3121    0.4135 H   0  0  0  0  0  0  0  0  0  0  0  0
    3.6789    0.2804    1.1102 H   0  0  0  0  0  0  0  0  0  0  0  0
    3.8061    0.0826   -0.6617 H   0  0  0  0  0  0  0  0  0  0  0  0
    0.2783   -2.2777    0.8307 H   0  0  0  0  0  0  0  0  0  0  0  0
   -1.6851   -2.0083   -1.5001 H   0  0  0  0  0  0  0  0  0  0  0  0
   -1.1766   -3.5494   -0.6514 H   0  0  0  0  0  0  0  0  0  0  0  0
  1  2  2  0  0  0  0
  2  3  1  0  0  0  0
  3  4  4  0  0  0  0
  4  5  4  0  0  0  0
  5  6  4  0  0  0  0
  6  7  4  0  0  0  0
  7  8  1  0  0  0  0
  8  9  1  0  0  0  0
  3 10  4  0  0  0  0
  7 10  4  0  0  0  0
 10 11  1  0  0  0  0
 11 12  2  0  0  0  0
  1 13  1  0  0  0  0
  1 14  1  0  0  0  0
  2 15  1  0  0  0  0
  4 16  1  0  0  0  0
  5 17  1  0  0  0  0
  6 18  1  0  0  0  0
  9 19  1  0  0  0  0
  9 20  1  0  0  0  0
  9 21  1  0  0  0  0
 11 22  1  0  0  0  0
 12 23  1  0  0  0  0
 12 24  1  0  0  0  0
M  END
