
  xtb     02032211353D
 xtb: 6.4.1 (23d549d)
 23 23  0     0  0            999 V2000
    3.7344    1.1418   -0.0421 C   0  0  0  0  0  0  0  0  0  0  0  0
    3.1296   -0.0384    0.0159 C   0  0  0  0  0  0  0  0  0  0  0  0
    1.6937   -0.2879    0.0189 C   0  0  0  0  0  0  0  0  0  0  0  0
    0.7332    0.7235   -0.0100 C   0  0  0  0  0  0  0  0  0  0  0  0
   -0.6179    0.4021   -0.0080 C   0  0  0  0  0  0  0  0  0  0  0  0
   -1.6045    1.3309   -0.0326 O   0  0  0  0  0  0  0  0  0  0  0  0
   -1.2611    2.6960   -0.0545 C   0  0  0  0  0  0  0  0  0  0  0  0
   -0.9852   -0.9632    0.0228 C   0  0  0  0  0  0  0  0  0  0  0  0
   -2.3409   -1.4853    0.0253 C   0  0  0  0  0  0  0  0  0  0  0  0
   -3.4828   -0.8075   -0.0227 C   0  0  0  0  0  0  0  0  0  0  0  0
    0.0705   -1.8787    0.0542 C   0  0  0  0  0  0  0  0  0  0  0  0
    1.3484   -1.5756    0.0531 N   0  0  0  0  0  0  0  0  0  0  0  0
    4.8081    1.2190   -0.0405 H   0  0  0  0  0  0  0  0  0  0  0  0
    3.1990    2.0750   -0.0945 H   0  0  0  0  0  0  0  0  0  0  0  0
    3.7139   -0.9471    0.0636 H   0  0  0  0  0  0  0  0  0  0  0  0
    1.0533    1.7512   -0.0324 H   0  0  0  0  0  0  0  0  0  0  0  0
   -2.2073    3.2351   -0.0668 H   0  0  0  0  0  0  0  0  0  0  0  0
   -0.6889    2.9531   -0.9515 H   0  0  0  0  0  0  0  0  0  0  0  0
   -0.6949    2.9833    0.8371 H   0  0  0  0  0  0  0  0  0  0  0  0
   -2.3803   -2.5681    0.0698 H   0  0  0  0  0  0  0  0  0  0  0  0
   -3.5204    0.2643   -0.0700 H   0  0  0  0  0  0  0  0  0  0  0  0
   -4.4280   -1.3251   -0.0164 H   0  0  0  0  0  0  0  0  0  0  0  0
   -0.1486   -2.9394    0.0818 H   0  0  0  0  0  0  0  0  0  0  0  0
  1  2  2  0  0  0  0
  2  3  1  0  0  0  0
  3  4  4  0  0  0  0
  4  5  4  0  0  0  0
  5  6  1  0  0  0  0
  6  7  1  0  0  0  0
  5  8  4  0  0  0  0
  8  9  1  0  0  0  0
  9 10  2  0  0  0  0
  8 11  4  0  0  0  0
  3 12  4  0  0  0  0
 11 12  4  0  0  0  0
  1 13  1  0  0  0  0
  1 14  1  0  0  0  0
  2 15  1  0  0  0  0
  4 16  1  0  0  0  0
  7 17  1  0  0  0  0
  7 18  1  0  0  0  0
  7 19  1  0  0  0  0
  9 20  1  0  0  0  0
 10 21  1  0  0  0  0
 10 22  1  0  0  0  0
 11 23  1  0  0  0  0
M  END
