
  xtb     02032211343D
 xtb: 6.4.1 (23d549d)
 43 44  0     0  0            999 V2000
   -4.1277    2.4390   -0.8924 C   0  0  0  0  0  0  0  0  0  0  0  0
   -4.0222    1.5586    0.3523 C   0  0  0  0  0  0  0  0  0  0  0  0
   -5.2852    0.7134    0.5217 C   0  0  0  0  0  0  0  0  0  0  0  0
   -2.9724    0.5751    0.1856 O   0  0  0  0  0  0  0  0  0  0  0  0
   -1.7044    0.9557   -0.0035 C   0  0  0  0  0  0  0  0  0  0  0  0
   -0.9040   -0.1542   -0.1736 N   0  0  0  0  0  0  0  0  0  0  0  0
    0.4992   -0.0637   -0.1776 C   0  0  0  0  0  0  0  0  0  0  0  0
    1.1784    0.8713    0.5995 C   0  0  0  0  0  0  0  0  0  0  0  0
    2.5567    0.9255    0.5843 C   0  0  0  0  0  0  0  0  0  0  0  0
    3.3027    0.0438   -0.2003 C   0  0  0  0  0  0  0  0  0  0  0  0
    4.7539    0.0445   -0.2581 C   0  0  0  0  0  0  0  0  0  0  0  0
    5.6075    0.8057    0.4115 C   0  0  0  0  0  0  0  0  0  0  0  0
    5.3388    1.7521    1.3034 F   0  0  0  0  0  0  0  0  0  0  0  0
    6.9302    0.7100    0.2720 F   0  0  0  0  0  0  0  0  0  0  0  0
    2.6116   -0.8919   -0.9745 C   0  0  0  0  0  0  0  0  0  0  0  0
    1.2355   -0.9471   -0.9669 C   0  0  0  0  0  0  0  0  0  0  0  0
   -1.4878   -1.4377   -0.3468 C   0  0  0  0  0  0  0  0  0  0  0  0
   -2.3982   -1.6715   -1.3699 C   0  0  0  0  0  0  0  0  0  0  0  0
   -2.9558   -2.9278   -1.5206 C   0  0  0  0  0  0  0  0  0  0  0  0
   -2.6008   -3.9571   -0.6647 C   0  0  0  0  0  0  0  0  0  0  0  0
   -1.6834   -3.7268    0.3468 C   0  0  0  0  0  0  0  0  0  0  0  0
   -1.1276   -2.4711    0.5097 C   0  0  0  0  0  0  0  0  0  0  0  0
   -1.2948    2.0892   -0.0221 O   0  0  0  0  0  0  0  0  0  0  0  0
   -3.7672    2.4008    1.6016 C   0  0  0  0  0  0  0  0  0  0  0  0
   -4.2824    1.8227   -1.7758 H   0  0  0  0  0  0  0  0  0  0  0  0
   -3.2182    3.0193   -1.0217 H   0  0  0  0  0  0  0  0  0  0  0  0
   -4.9680    3.1194   -0.7876 H   0  0  0  0  0  0  0  0  0  0  0  0
   -5.4341    0.0868   -0.3537 H   0  0  0  0  0  0  0  0  0  0  0  0
   -6.1495    1.3577    0.6508 H   0  0  0  0  0  0  0  0  0  0  0  0
   -5.1870    0.0686    1.3908 H   0  0  0  0  0  0  0  0  0  0  0  0
    0.6249    1.5636    1.2115 H   0  0  0  0  0  0  0  0  0  0  0  0
    3.0515    1.6606    1.1972 H   0  0  0  0  0  0  0  0  0  0  0  0
    5.2091   -0.6677   -0.9315 H   0  0  0  0  0  0  0  0  0  0  0  0
    3.1650   -1.5819   -1.5945 H   0  0  0  0  0  0  0  0  0  0  0  0
    0.7212   -1.6749   -1.5766 H   0  0  0  0  0  0  0  0  0  0  0  0
   -2.6641   -0.8689   -2.0409 H   0  0  0  0  0  0  0  0  0  0  0  0
   -3.6649   -3.1060   -2.3154 H   0  0  0  0  0  0  0  0  0  0  0  0
   -3.0366   -4.9371   -0.7872 H   0  0  0  0  0  0  0  0  0  0  0  0
   -1.4025   -4.5265    1.0158 H   0  0  0  0  0  0  0  0  0  0  0  0
   -0.4119   -2.2832    1.2965 H   0  0  0  0  0  0  0  0  0  0  0  0
   -4.6120    3.0612    1.7755 H   0  0  0  0  0  0  0  0  0  0  0  0
   -2.8702    3.0005    1.4748 H   0  0  0  0  0  0  0  0  0  0  0  0
   -3.6405    1.7541    2.4674 H   0  0  0  0  0  0  0  0  0  0  0  0
  1  2  1  0  0  0  0
  2  3  1  0  0  0  0
  2  4  1  0  0  0  0
  4  5  1  0  0  0  0
  5  6  1  0  0  0  0
  6  7  1  0  0  0  0
  7  8  4  0  0  0  0
  8  9  4  0  0  0  0
  9 10  4  0  0  0  0
 10 11  1  0  0  0  0
 11 12  2  0  0  0  0
 12 13  1  0  0  0  0
 12 14  1  0  0  0  0
 10 15  4  0  0  0  0
  7 16  4  0  0  0  0
 15 16  4  0  0  0  0
  6 17  1  0  0  0  0
 17 18  4  0  0  0  0
 18 19  4  0  0  0  0
 19 20  4  0  0  0  0
 20 21  4  0  0  0  0
 17 22  4  0  0  0  0
 21 22  4  0  0  0  0
  5 23  2  0  0  0  0
  2 24  1  0  0  0  0
  1 25  1  0  0  0  0
  1 26  1  0  0  0  0
  1 27  1  0  0  0  0
  3 28  1  0  0  0  0
  3 29  1  0  0  0  0
  3 30  1  0  0  0  0
  8 31  1  0  0  0  0
  9 32  1  0  0  0  0
 11 33  1  0  0  0  0
 15 34  1  0  0  0  0
 16 35  1  0  0  0  0
 18 36  1  0  0  0  0
 19 37  1  0  0  0  0
 20 38  1  0  0  0  0
 21 39  1  0  0  0  0
 22 40  1  0  0  0  0
 24 41  1  0  0  0  0
 24 42  1  0  0  0  0
 24 43  1  0  0  0  0
M  END
