
  xtb     02032210473D
 xtb: 6.4.1 (23d549d)
 42 45  0     0  0            999 V2000
    0.9147    0.1913    0.1891 c   0  0  0  0  0  0  0  0  0  0  0  0
    2.4135    0.1483    0.1491 c   0  0  0  0  0  0  0  0  0  0  0  0
    3.1613    1.3118    0.1284 c   0  0  0  0  0  0  0  0  0  0  0  0
    4.5472    1.2301    0.0922 c   0  0  0  0  0  0  0  0  0  0  0  0
    5.5899    2.2163    0.0350 c   0  0  0  0  0  0  0  0  0  0  0  0
    5.5865    3.6050    0.0369 c   0  0  0  0  0  0  0  0  0  0  0  0
    6.7898    4.2863   -0.0010 c   0  0  0  0  0  0  0  0  0  0  0  0
    6.8308    5.7857   -0.0051 c   0  0  0  0  0  0  0  0  0  0  0  0
    7.9892    3.5667   -0.0235 c   0  0  0  0  0  0  0  0  0  0  0  0
    8.0212    2.1867   -0.0258 c   0  0  0  0  0  0  0  0  0  0  0  0
    6.8107    1.5090   -0.0151 c   0  0  0  0  0  0  0  0  0  0  0  0
    6.5548    0.1497    0.0201 n   0  0  0  0  0  0  0  0  0  0  0  0
    7.5103   -0.8661   -0.0144 c   0  0  0  0  0  0  0  0  0  0  0  0
    7.4563   -1.9181    0.8990 c   0  0  0  0  0  0  0  0  0  0  0  0
    8.3983   -2.9225    0.8544 c   0  0  0  0  0  0  0  0  0  0  0  0
    9.4254   -2.9111   -0.0937 c   0  0  0  0  0  0  0  0  0  0  0  0
   10.3814   -4.0043   -0.0806 c   0  0  0  0  0  0  0  0  0  0  0  0
   11.4167   -4.2063   -0.8830 c   0  0  0  0  0  0  0  0  0  0  0  0
   11.8286   -3.4516   -1.8954 f   0  0  0  0  0  0  0  0  0  0  0  0
   12.2279   -5.2578   -0.7725 f   0  0  0  0  0  0  0  0  0  0  0  0
    9.4752   -1.8501   -1.0014 c   0  0  0  0  0  0  0  0  0  0  0  0
    8.5313   -0.8458   -0.9637 c   0  0  0  0  0  0  0  0  0  0  0  0
    5.1844   -0.0297    0.0868 c   0  0  0  0  0  0  0  0  0  0  0  0
    4.4390   -1.1998    0.0815 c   0  0  0  0  0  0  0  0  0  0  0  0
    3.0635   -1.0899    0.1177 c   0  0  0  0  0  0  0  0  0  0  0  0
    0.5555    1.2171    0.2044 h   0  0  0  0  0  0  0  0  0  0  0  0
    0.5423   -0.3203    1.0760 h   0  0  0  0  0  0  0  0  0  0  0  0
    0.4965   -0.3098   -0.6834 h   0  0  0  0  0  0  0  0  0  0  0  0
    2.6762    2.2768    0.1332 h   0  0  0  0  0  0  0  0  0  0  0  0
    4.6511    4.1437    0.0735 h   0  0  0  0  0  0  0  0  0  0  0  0
    5.8269    6.2020    0.0177 h   0  0  0  0  0  0  0  0  0  0  0  0
    7.3374    6.1501   -0.8983 h   0  0  0  0  0  0  0  0  0  0  0  0
    7.3791    6.1542    0.8612 h   0  0  0  0  0  0  0  0  0  0  0  0
    8.9210    4.1138   -0.0351 h   0  0  0  0  0  0  0  0  0  0  0  0
    8.9623    1.6577   -0.0226 h   0  0  0  0  0  0  0  0  0  0  0  0
    6.6833   -1.9296    1.6524 h   0  0  0  0  0  0  0  0  0  0  0  0
    8.3477   -3.7292    1.5710 h   0  0  0  0  0  0  0  0  0  0  0  0
   10.2383   -4.7598    0.6788 h   0  0  0  0  0  0  0  0  0  0  0  0
   10.2483   -1.8101   -1.7509 h   0  0  0  0  0  0  0  0  0  0  0  0
    8.5663   -0.0450   -1.6865 h   0  0  0  0  0  0  0  0  0  0  0  0
    4.9130   -2.1686    0.0350 h   0  0  0  0  0  0  0  0  0  0  0  0
    2.4645   -1.9893    0.1167 h   0  0  0  0  0  0  0  0  0  0  0  0
  1  2  1  0  0  0  0
  2  3  4  0  0  0  0
  3  4  4  0  0  0  0
  4  5  1  0  0  0  0
  5  6  4  0  0  0  0
  6  7  4  0  0  0  0
  7  8  1  0  0  0  0
  7  9  4  0  0  0  0
  9 10  4  0  0  0  0
  5 11  4  0  0  0  0
 10 11  4  0  0  0  0
 11 12  1  0  0  0  0
 12 13  1  0  0  0  0
 13 14  4  0  0  0  0
 14 15  4  0  0  0  0
 15 16  4  0  0  0  0
 16 17  1  0  0  0  0
 17 18  2  0  0  0  0
 18 19  1  0  0  0  0
 18 20  1  0  0  0  0
 16 21  4  0  0  0  0
 13 22  4  0  0  0  0
 21 22  4  0  0  0  0
  4 23  4  0  0  0  0
 12 23  1  0  0  0  0
 23 24  4  0  0  0  0
  2 25  4  0  0  0  0
 24 25  4  0  0  0  0
  1 26  1  0  0  0  0
  1 27  1  0  0  0  0
  1 28  1  0  0  0  0
  3 29  1  0  0  0  0
  6 30  1  0  0  0  0
  8 31  1  0  0  0  0
  8 32  1  0  0  0  0
  8 33  1  0  0  0  0
  9 34  1  0  0  0  0
 10 35  1  0  0  0  0
 14 36  1  0  0  0  0
 15 37  1  0  0  0  0
 17 38  1  0  0  0  0
 21 39  1  0  0  0  0
 22 40  1  0  0  0  0
 24 41  1  0  0  0  0
 25 42  1  0  0  0  0
M  END
