
  xtb     02032211363D
 xtb: 6.4.1 (23d549d)
 21 21  0     0  0            999 V2000
    3.7386    1.2105   -0.0092 C   0  0  0  0  0  0  0  0  0  0  0  0
    2.4841    1.6460   -0.0103 C   0  0  0  0  0  0  0  0  0  0  0  0
    1.2661    0.8462   -0.0053 C   0  0  0  0  0  0  0  0  0  0  0  0
    0.0426    1.5110    0.0044 C   0  0  0  0  0  0  0  0  0  0  0  0
   -1.2045    0.8871    0.0104 C   0  0  0  0  0  0  0  0  0  0  0  0
   -2.4031    1.7162    0.0206 C   0  0  0  0  0  0  0  0  0  0  0  0
   -3.6702    1.3180    0.0148 C   0  0  0  0  0  0  0  0  0  0  0  0
   -1.1966   -0.5099    0.0064 C   0  0  0  0  0  0  0  0  0  0  0  0
   -2.3289   -1.2334    0.0127 F   0  0  0  0  0  0  0  0  0  0  0  0
    0.0043   -1.1953   -0.0037 C   0  0  0  0  0  0  0  0  0  0  0  0
    0.0092   -2.5555   -0.0080 F   0  0  0  0  0  0  0  0  0  0  0  0
    1.2448   -0.5601   -0.0098 C   0  0  0  0  0  0  0  0  0  0  0  0
    2.3723   -1.3032   -0.0201 O   0  0  0  0  0  0  0  0  0  0  0  0
    4.5606    1.9064   -0.0126 H   0  0  0  0  0  0  0  0  0  0  0  0
    3.9905    0.1668   -0.0047 H   0  0  0  0  0  0  0  0  0  0  0  0
    2.2999    2.7135   -0.0142 H   0  0  0  0  0  0  0  0  0  0  0  0
    0.0600    2.5912    0.0076 H   0  0  0  0  0  0  0  0  0  0  0  0
   -2.1894    2.7779    0.0332 H   0  0  0  0  0  0  0  0  0  0  0  0
   -3.9685    0.2859    0.0015 H   0  0  0  0  0  0  0  0  0  0  0  0
   -4.4692    2.0399    0.0234 H   0  0  0  0  0  0  0  0  0  0  0  0
    2.1361   -2.2428   -0.0231 H   0  0  0  0  0  0  0  0  0  0  0  0
  1  2  2  0  0  0  0
  2  3  1  0  0  0  0
  3  4  4  0  0  0  0
  4  5  4  0  0  0  0
  5  6  1  0  0  0  0
  6  7  2  0  0  0  0
  5  8  4  0  0  0  0
  8  9  1  0  0  0  0
  8 10  4  0  0  0  0
 10 11  1  0  0  0  0
  3 12  4  0  0  0  0
 10 12  4  0  0  0  0
 12 13  1  0  0  0  0
  1 14  1  0  0  0  0
  1 15  1  0  0  0  0
  2 16  1  0  0  0  0
  4 17  1  0  0  0  0
  6 18  1  0  0  0  0
  7 19  1  0  0  0  0
  7 20  1  0  0  0  0
 13 21  1  0  0  0  0
M  END
