  27

 C          1.1065800000        0.0391700000        0.4391500000
 C          2.2112000000        0.0959000000       -0.3153000000
 C          3.0276000000       -1.0905000000       -0.5947000000
 C          2.6664000000       -1.8026000000       -1.7509000000
 C          3.4055000000       -2.9045000000       -2.1639000000
 Cl         2.9569000000       -3.7432000000       -3.5984000000
 C          4.5154000000       -3.3207000000       -1.4379000000
 C          4.8949000000       -2.6464000000       -0.2652000000
 C          6.1026000000       -3.0662000000        0.4762000000
 C          6.3125200000       -2.9722200000        1.7945900000
 F          5.3875700000       -2.4460600000        2.6242700000
 F          7.4833800000       -3.4101000000        2.3037900000
 C          4.1411000000       -1.5190000000        0.1614000000
 O          4.6323000000       -0.8926000000        1.2849000000
 C          3.7232500000       -0.1706500000        2.1093800000
 C          3.1802600000       -1.1215800000        3.1631000000
 H          0.5342200000        0.9372700000        0.6466800000
 H          0.7483000000       -0.8929300000        0.8651400000
 H          2.5643200000        1.0391800000       -0.7223400000
 H          1.8141000000       -1.4782000000       -2.3453000000
 H          5.0904000000       -4.1681000000       -1.8041000000
 H          6.9072100000       -3.4797100000       -0.1256900000
 H          2.8774800000        0.2327900000        1.5409100000
 H          4.2636400000        0.6360600000        2.6151700000
 H          2.6079900000       -1.9273200000        2.6913300000
 H          2.5286500000       -0.5930300000        3.8647300000
 H          3.9957500000       -1.5923900000        3.7216800000
