
  xtb     02032211353D
 xtb: 6.4.1 (23d549d)
 22 22  0     0  0            999 V2000
   -2.4206   -1.8521   -0.4624 C   0  0  0  0  0  0  0  0  0  0  0  0
   -2.4086   -0.7129    0.2166 C   0  0  0  0  0  0  0  0  0  0  0  0
   -1.3591    0.3037    0.1478 C   0  0  0  0  0  0  0  0  0  0  0  0
   -1.7244    1.6513    0.2181 C   0  0  0  0  0  0  0  0  0  0  0  0
   -0.8767    2.6517    0.0907 N   0  0  0  0  0  0  0  0  0  0  0  0
    0.3975    2.3725   -0.0952 C   0  0  0  0  0  0  0  0  0  0  0  0
    0.9146    1.0743   -0.1399 C   0  0  0  0  0  0  0  0  0  0  0  0
    2.3580    0.8875   -0.2649 C   0  0  0  0  0  0  0  0  0  0  0  0
    3.0725   -0.0304    0.3693 C   0  0  0  0  0  0  0  0  0  0  0  0
    0.0031    0.0170   -0.0235 C   0  0  0  0  0  0  0  0  0  0  0  0
    0.4862   -1.3997   -0.1104 C   0  0  0  0  0  0  0  0  0  0  0  0
    1.0183   -1.8680   -1.0742 O   0  0  0  0  0  0  0  0  0  0  0  0
    0.2862   -2.1354    1.0049 O   0  0  0  0  0  0  0  0  0  0  0  0
   -3.2468   -2.5380   -0.3868 H   0  0  0  0  0  0  0  0  0  0  0  0
   -1.6265   -2.1371   -1.1313 H   0  0  0  0  0  0  0  0  0  0  0  0
   -3.2569   -0.4421    0.8338 H   0  0  0  0  0  0  0  0  0  0  0  0
   -2.7606    1.9280    0.3624 H   0  0  0  0  0  0  0  0  0  0  0  0
    1.0563    3.2253   -0.1929 H   0  0  0  0  0  0  0  0  0  0  0  0
    2.8527    1.6168   -0.8933 H   0  0  0  0  0  0  0  0  0  0  0  0
    2.6358   -0.7505    1.0406 H   0  0  0  0  0  0  0  0  0  0  0  0
    4.1394   -0.0920    0.2443 H   0  0  0  0  0  0  0  0  0  0  0  0
   -0.2048   -1.6534    1.6833 H   0  0  0  0  0  0  0  0  0  0  0  0
  1  2  2  0  0  0  0
  2  3  1  0  0  0  0
  3  4  4  0  0  0  0
  4  5  4  0  0  0  0
  5  6  4  0  0  0  0
  6  7  4  0  0  0  0
  7  8  1  0  0  0  0
  8  9  2  0  0  0  0
  3 10  4  0  0  0  0
  7 10  4  0  0  0  0
 10 11  1  0  0  0  0
 11 12  2  0  0  0  0
 11 13  1  0  0  0  0
  1 14  1  0  0  0  0
  1 15  1  0  0  0  0
  2 16  1  0  0  0  0
  4 17  1  0  0  0  0
  6 18  1  0  0  0  0
  8 19  1  0  0  0  0
  9 20  1  0  0  0  0
  9 21  1  0  0  0  0
 13 22  1  0  0  0  0
M  END
