23

C          2.62270       -0.74507       -1.31851
N          2.40790       -0.06050       -0.04810
C          3.10370        1.15030        0.34810
C          2.52040        2.12630        1.19650
C          3.22090        3.28070        1.56080
C          4.52010        3.50240        1.09460
C          5.27780        4.73880        1.48020
C          5.11570        2.55490        0.25970
C          4.42350        1.39830       -0.10710
C          1.42909       -0.66779        0.84347
H          3.37837       -0.28947       -1.97199
H          1.66936       -0.77855       -1.88745
H          2.95852       -1.78597       -1.12357
H          1.53090        2.03820        1.60490
H          2.74310        4.00340        2.21110
H          4.67750        5.39420        2.14660
H          5.54260        5.31360        0.56790
H          6.20940        4.45440        2.01370
H          6.12220        2.71100       -0.10960
H          4.94050        0.70550       -0.75450
H          0.97815       -1.58204        0.39806
H          0.60468        0.04882        1.04476
H          1.91485       -0.96693        1.79624
23

C          1.05391       -0.39852        0.37752
N          2.40790       -0.06050       -0.04810
C          3.10370        1.15030        0.34810
C          2.52040        2.12630        1.19650
C          3.22090        3.28070        1.56080
C          4.52010        3.50240        1.09460
C          5.27780        4.73880        1.48020
C          5.11570        2.55490        0.25970
C          4.42350        1.39830       -0.10710
C          3.05811       -1.02545       -0.92439
H          0.56706        0.34704        1.01999
H          1.06972       -1.35808        0.93669
H          0.40580       -0.51753       -0.51693
H          1.53090        2.03820        1.60490
H          2.74310        4.00340        2.21110
H          4.67750        5.39420        2.14660
H          5.54260        5.31360        0.56790
H          6.20940        4.45440        2.01370
H          6.12220        2.71100       -0.10960
H          4.94050        0.70550       -0.75450
H          2.40307       -1.90058       -1.13088
H          3.98547       -1.40615       -0.44609
H          3.29911       -0.55291       -1.90001
23

C          0.95878       -0.15952       -0.18582
N          2.40790       -0.06050       -0.04810
C          3.10370        1.15030        0.34810
C          2.52040        2.12630        1.19650
C          3.22090        3.28070        1.56080
C          4.52010        3.50240        1.09460
C          5.27780        4.73880        1.48020
C          5.11570        2.55490        0.25970
C          4.42350        1.39830       -0.10710
C          3.15831       -1.27465       -0.33877
H          0.40663        0.76807        0.01504
H          0.57209       -0.93292        0.51132
H          0.70746       -0.45895       -1.22574
H          1.53090        2.03820        1.60490
H          2.74310        4.00340        2.21110
H          4.67750        5.39420        2.14660
H          5.54260        5.31360        0.56790
H          6.20940        4.45440        2.01370
H          6.12220        2.71100       -0.10960
H          4.94050        0.70550       -0.75450
H          2.48702       -2.11589       -0.62031
H          3.73168       -1.58920        0.55901
H          3.84937       -1.10127       -1.19058
