
  xtb     02032211353D
 xtb: 6.4.1 (23d549d)
 21 21  0     0  0            999 V2000
   -3.7232    0.7963   -0.0031 C   0  0  0  0  0  0  0  0  0  0  0  0
   -2.9232   -0.2630   -0.0016 C   0  0  0  0  0  0  0  0  0  0  0  0
   -1.4707   -0.1677    0.0007 C   0  0  0  0  0  0  0  0  0  0  0  0
   -0.6685   -1.3179   -0.0004 C   0  0  0  0  0  0  0  0  0  0  0  0
    0.7041   -1.1765    0.0004 C   0  0  0  0  0  0  0  0  0  0  0  0
    1.6055   -2.3694   -0.0034 C   0  0  0  0  0  0  0  0  0  0  0  0
    1.1914    0.1515    0.0039 C   0  0  0  0  0  0  0  0  0  0  0  0
    2.6163    0.4593    0.0061 C   0  0  0  0  0  0  0  0  0  0  0  0
    3.0871    1.7010   -0.0096 C   0  0  0  0  0  0  0  0  0  0  0  0
    0.3589    1.1908    0.0054 N   0  0  0  0  0  0  0  0  0  0  0  0
   -0.9198    1.0462    0.0033 N   0  0  0  0  0  0  0  0  0  0  0  0
   -4.7954    0.7009   -0.0052 H   0  0  0  0  0  0  0  0  0  0  0  0
   -3.3078    1.7890   -0.0021 H   0  0  0  0  0  0  0  0  0  0  0  0
   -3.3239   -1.2690   -0.0025 H   0  0  0  0  0  0  0  0  0  0  0  0
   -1.1250   -2.2988   -0.0026 H   0  0  0  0  0  0  0  0  0  0  0  0
    1.0195   -3.2860   -0.0114 H   0  0  0  0  0  0  0  0  0  0  0  0
    2.2408   -2.3712    0.8817 H   0  0  0  0  0  0  0  0  0  0  0  0
    2.2480   -2.3600   -0.8831 H   0  0  0  0  0  0  0  0  0  0  0  0
    3.2918   -0.3841    0.0211 H   0  0  0  0  0  0  0  0  0  0  0  0
    2.4122    2.5389   -0.0250 H   0  0  0  0  0  0  0  0  0  0  0  0
    4.1436    1.9077   -0.0074 H   0  0  0  0  0  0  0  0  0  0  0  0
  1  2  2  0  0  0  0
  2  3  1  0  0  0  0
  3  4  4  0  0  0  0
  4  5  4  0  0  0  0
  5  6  1  0  0  0  0
  5  7  4  0  0  0  0
  7  8  1  0  0  0  0
  8  9  2  0  0  0  0
  7 10  4  0  0  0  0
  3 11  4  0  0  0  0
 10 11  4  0  0  0  0
  1 12  1  0  0  0  0
  1 13  1  0  0  0  0
  2 14  1  0  0  0  0
  4 15  1  0  0  0  0
  6 16  1  0  0  0  0
  6 17  1  0  0  0  0
  6 18  1  0  0  0  0
  8 19  1  0  0  0  0
  9 20  1  0  0  0  0
  9 21  1  0  0  0  0
M  END
