 xtb: 6.5.0 (unknown)
          08122213083D

 26  0  0     0  0            999 V2000
    2.1117   -3.7509   -0.7689 C   0  0  0  0  0  0  0  0  0  0  0  0
    1.1227   -3.2493   -0.0433 C   0  0  0  0  0  0  0  0  0  0  0  0
    0.7142   -1.8411   -0.0339 C   0  0  0  0  0  0  0  0  0  0  0  0
   -0.6250   -1.5581   -0.1518 C   0  0  0  0  0  0  0  0  0  0  0  0
   -1.1209   -0.2417   -0.2359 C   0  0  0  0  0  0  0  0  0  0  0  0
   -2.5600   -0.0389   -0.3722 C   0  0  0  0  0  0  0  0  0  0  0  0
   -3.2632    0.9520    0.1530 C   0  0  0  0  0  0  0  0  0  0  0  0
   -2.8286    1.9224    0.9377 F   0  0  0  0  0  0  0  0  0  0  0  0
   -4.5795    1.0722   -0.0065 F   0  0  0  0  0  0  0  0  0  0  0  0
   -0.2048    0.7857   -0.2217 C   0  0  0  0  0  0  0  0  0  0  0  0
   -0.6177    2.0560   -0.4064 F   0  0  0  0  0  0  0  0  0  0  0  0
    1.1779    0.5650   -0.0534 C   0  0  0  0  0  0  0  0  0  0  0  0
    2.0904    1.6394    0.0079 C   0  0  0  0  0  0  0  0  0  0  0  0
    3.4200    1.4073    0.2193 C   0  0  0  0  0  0  0  0  0  0  0  0
    3.8829    0.0964    0.3993 C   0  0  0  0  0  0  0  0  0  0  0  0
    3.0206   -0.9637    0.3277 C   0  0  0  0  0  0  0  0  0  0  0  0
    1.6485   -0.7703    0.0693 C   0  0  0  0  0  0  0  0  0  0  0  0
    2.3383   -4.8035   -0.7604 H   0  0  0  0  0  0  0  0  0  0  0  0
    2.7140   -3.1360   -1.4167 H   0  0  0  0  0  0  0  0  0  0  0  0
    0.5025   -3.9108    0.5492 H   0  0  0  0  0  0  0  0  0  0  0  0
   -1.3352   -2.3706   -0.2027 H   0  0  0  0  0  0  0  0  0  0  0  0
   -3.1124   -0.7812   -0.9282 H   0  0  0  0  0  0  0  0  0  0  0  0
    1.7126    2.6447   -0.1012 H   0  0  0  0  0  0  0  0  0  0  0  0
    4.1159    2.2311    0.2680 H   0  0  0  0  0  0  0  0  0  0  0  0
    4.9301   -0.0727    0.6025 H   0  0  0  0  0  0  0  0  0  0  0  0
    3.3839   -1.9661    0.4917 H   0  0  0  0  0  0  0  0  0  0  0  0
M  END
