
  xtb     02032211353D
 xtb: 6.4.1 (23d549d)
 49 51  0     0  0            999 V2000
   -6.1075   -0.7067   -0.1734 C   0  0  0  0  0  0  0  0  0  0  0  0
   -5.0084   -1.3801    0.1478 C   0  0  0  0  0  0  0  0  0  0  0  0
   -3.6357   -0.9118    0.0358 C   0  0  0  0  0  0  0  0  0  0  0  0
   -3.2845    0.3355   -0.4795 C   0  0  0  0  0  0  0  0  0  0  0  0
   -1.9664    0.7340   -0.5586 C   0  0  0  0  0  0  0  0  0  0  0  0
   -0.9292   -0.0854   -0.1081 C   0  0  0  0  0  0  0  0  0  0  0  0
   -1.2826   -1.3377    0.4018 C   0  0  0  0  0  0  0  0  0  0  0  0
   -2.5997   -1.7447    0.4619 C   0  0  0  0  0  0  0  0  0  0  0  0
   -0.0337   -2.4197    1.0456 S   0  0  0  0  0  0  0  0  0  0  0  0
    1.3032   -1.9385   -0.0157 C   0  0  0  0  0  0  0  0  0  0  0  0
    2.2662   -2.8782   -0.3188 C   0  0  0  0  0  0  0  0  0  0  0  0
    3.3715   -2.5476   -1.1039 C   0  0  0  0  0  0  0  0  0  0  0  0
    4.4280   -3.4933   -1.4286 C   0  0  0  0  0  0  0  0  0  0  0  0
    4.5296   -4.7487   -1.0065 C   0  0  0  0  0  0  0  0  0  0  0  0
    3.4414   -1.2444   -1.5958 C   0  0  0  0  0  0  0  0  0  0  0  0
    2.4668   -0.3100   -1.3100 C   0  0  0  0  0  0  0  0  0  0  0  0
    1.3816   -0.6253   -0.4913 C   0  0  0  0  0  0  0  0  0  0  0  0
    0.4036    0.3128   -0.1733 N   0  0  0  0  0  0  0  0  0  0  0  0
    0.7288    1.7235   -0.1417 C   0  0  0  0  0  0  0  0  0  0  0  0
    0.1981    2.3705    1.1420 C   0  0  0  0  0  0  0  0  0  0  0  0
    0.5921    3.8422    1.2666 C   0  0  0  0  0  0  0  0  0  0  0  0
   -0.1608    4.7478    0.2930 C   0  0  0  0  0  0  0  0  0  0  0  0
    0.2171    6.2235    0.4329 C   0  0  0  0  0  0  0  0  0  0  0  0
   -0.2578    6.8475    1.7399 C   0  0  0  0  0  0  0  0  0  0  0  0
   -7.0844   -1.1426   -0.0543 H   0  0  0  0  0  0  0  0  0  0  0  0
   -6.0849    0.2962   -0.5640 H   0  0  0  0  0  0  0  0  0  0  0  0
   -5.1067   -2.3853    0.5394 H   0  0  0  0  0  0  0  0  0  0  0  0
   -4.0499    1.0080   -0.8334 H   0  0  0  0  0  0  0  0  0  0  0  0
   -1.7406    1.6996   -0.9824 H   0  0  0  0  0  0  0  0  0  0  0  0
   -2.8211   -2.7190    0.8720 H   0  0  0  0  0  0  0  0  0  0  0  0
    2.1533   -3.8720    0.0837 H   0  0  0  0  0  0  0  0  0  0  0  0
    5.1964   -3.0967   -2.0817 H   0  0  0  0  0  0  0  0  0  0  0  0
    3.8060   -5.2045   -0.3532 H   0  0  0  0  0  0  0  0  0  0  0  0
    5.3550   -5.3726   -1.3034 H   0  0  0  0  0  0  0  0  0  0  0  0
    4.2730   -0.9577   -2.2234 H   0  0  0  0  0  0  0  0  0  0  0  0
    2.5479    0.6767   -1.7395 H   0  0  0  0  0  0  0  0  0  0  0  0
    0.3483    2.2428   -1.0291 H   0  0  0  0  0  0  0  0  0  0  0  0
    1.8159    1.8143   -0.1370 H   0  0  0  0  0  0  0  0  0  0  0  0
    0.6076    1.8147    1.9889 H   0  0  0  0  0  0  0  0  0  0  0  0
   -0.8884    2.2820    1.1867 H   0  0  0  0  0  0  0  0  0  0  0  0
    1.6674    3.9479    1.1031 H   0  0  0  0  0  0  0  0  0  0  0  0
    0.3789    4.1633    2.2870 H   0  0  0  0  0  0  0  0  0  0  0  0
   -1.2355    4.6361    0.4564 H   0  0  0  0  0  0  0  0  0  0  0  0
    0.0545    4.4372   -0.7315 H   0  0  0  0  0  0  0  0  0  0  0  0
   -0.2269    6.7749   -0.3994 H   0  0  0  0  0  0  0  0  0  0  0  0
    1.3019    6.3258    0.3542 H   0  0  0  0  0  0  0  0  0  0  0  0
   -1.3320    6.7189    1.8544 H   0  0  0  0  0  0  0  0  0  0  0  0
   -0.0377    7.9125    1.7495 H   0  0  0  0  0  0  0  0  0  0  0  0
    0.2365    6.3941    2.5950 H   0  0  0  0  0  0  0  0  0  0  0  0
  1  2  2  0  0  0  0
  2  3  1  0  0  0  0
  3  4  4  0  0  0  0
  4  5  4  0  0  0  0
  5  6  4  0  0  0  0
  6  7  4  0  0  0  0
  3  8  4  0  0  0  0
  7  8  4  0  0  0  0
  7  9  1  0  0  0  0
  9 10  1  0  0  0  0
 10 11  4  0  0  0  0
 11 12  4  0  0  0  0
 12 13  1  0  0  0  0
 13 14  2  0  0  0  0
 12 15  4  0  0  0  0
 15 16  4  0  0  0  0
 10 17  4  0  0  0  0
 16 17  4  0  0  0  0
  6 18  1  0  0  0  0
 17 18  1  0  0  0  0
 18 19  1  0  0  0  0
 19 20  1  0  0  0  0
 20 21  1  0  0  0  0
 21 22  1  0  0  0  0
 22 23  1  0  0  0  0
 23 24  1  0  0  0  0
  1 25  1  0  0  0  0
  1 26  1  0  0  0  0
  2 27  1  0  0  0  0
  4 28  1  0  0  0  0
  5 29  1  0  0  0  0
  8 30  1  0  0  0  0
 11 31  1  0  0  0  0
 13 32  1  0  0  0  0
 14 33  1  0  0  0  0
 14 34  1  0  0  0  0
 15 35  1  0  0  0  0
 16 36  1  0  0  0  0
 19 37  1  0  0  0  0
 19 38  1  0  0  0  0
 20 39  1  0  0  0  0
 20 40  1  0  0  0  0
 21 41  1  0  0  0  0
 21 42  1  0  0  0  0
 22 43  1  0  0  0  0
 22 44  1  0  0  0  0
 23 45  1  0  0  0  0
 23 46  1  0  0  0  0
 24 47  1  0  0  0  0
 24 48  1  0  0  0  0
 24 49  1  0  0  0  0
M  END
