22

C          1.00260       -0.06270       -0.00960
C          2.50330       -0.07190       -0.01660
C          3.22810       -1.28180       -0.06180
C          4.63930       -1.27640       -0.06600
C          5.35550       -0.06110       -0.02520
C          6.85590       -0.04210       -0.02720
C          4.61160        1.12460        0.01780
N          5.07560        2.38730        0.05960
C          3.98970        3.19170        0.09020
C          2.82580        2.43430        0.06810
C          3.23890        1.11800        0.02200
H          0.59180       -1.09410       -0.04490
H          0.62770        0.49590       -0.89270
H          0.63700        0.42950        0.91610
H          2.70610       -2.22990       -0.09310
H          5.16800       -2.22070       -0.10050
H          7.27330       -1.07070       -0.06570
H          7.22400        0.45160        0.89650
H          7.22180        0.51890       -0.91260
H          6.07310        2.69590        0.06690
H          4.03710        4.27210        0.12650
H          1.80930        2.80470        0.08360
