
 OpenBabel02012214123D

 22 23  0  0  0  0  0  0  0  0999 V2000
    1.0026   -0.0627   -0.0096 C   0  0  0  0  0  0  0  0  0  0  0  0
    2.5033   -0.0719   -0.0166 C   0  0  0  0  0  0  0  0  0  0  0  0
    3.2281   -1.2818   -0.0618 C   0  0  0  0  0  0  0  0  0  0  0  0
    4.6393   -1.2764   -0.0660 C   0  0  0  0  0  0  0  0  0  0  0  0
    5.3555   -0.0611   -0.0252 C   0  0  0  0  0  0  0  0  0  0  0  0
    6.8559   -0.0421   -0.0272 C   0  0  0  0  0  0  0  0  0  0  0  0
    4.6116    1.1246    0.0178 C   0  0  0  0  0  0  0  0  0  0  0  0
    5.0756    2.3873    0.0596 N   0  0  0  0  0  0  0  0  0  0  0  0
    3.9897    3.1917    0.0902 C   0  0  0  0  0  0  0  0  0  0  0  0
    2.8258    2.4343    0.0681 C   0  0  0  0  0  0  0  0  0  0  0  0
    3.2389    1.1180    0.0220 C   0  0  0  0  0  0  0  0  0  0  0  0
    0.5918   -1.0941   -0.0449 H   0  0  0  0  0  0  0  0  0  0  0  0
    0.6277    0.4959   -0.8927 H   0  0  0  0  0  0  0  0  0  0  0  0
    0.6370    0.4295    0.9161 H   0  0  0  0  0  0  0  0  0  0  0  0
    2.7061   -2.2299   -0.0931 H   0  0  0  0  0  0  0  0  0  0  0  0
    5.1680   -2.2207   -0.1005 H   0  0  0  0  0  0  0  0  0  0  0  0
    7.2733   -1.0707   -0.0657 H   0  0  0  0  0  0  0  0  0  0  0  0
    7.2240    0.4516    0.8965 H   0  0  0  0  0  0  0  0  0  0  0  0
    7.2218    0.5189   -0.9126 H   0  0  0  0  0  0  0  0  0  0  0  0
    6.0731    2.6959    0.0669 H   0  0  0  0  0  0  0  0  0  0  0  0
    4.0371    4.2721    0.1265 H   0  0  0  0  0  0  0  0  0  0  0  0
    1.8093    2.8047    0.0836 H   0  0  0  0  0  0  0  0  0  0  0  0
  1  2  1  0  0  0  0
  1 12  1  0  0  0  0
  1 13  1  0  0  0  0
  1 14  1  0  0  0  0
  2  3  1  0  0  0  0
  2 11  2  0  0  0  0
  3  4  2  0  0  0  0
  3 15  1  0  0  0  0
  4  5  1  0  0  0  0
  4 16  1  0  0  0  0
  5  6  1  0  0  0  0
  5  7  2  0  0  0  0
  6 17  1  0  0  0  0
  6 18  1  0  0  0  0
  6 19  1  0  0  0  0
  7  8  1  0  0  0  0
  7 11  1  0  0  0  0
  8  9  1  0  0  0  0
  8 20  1  0  0  0  0
  9 10  2  0  0  0  0
  9 21  1  0  0  0  0
 10 11  1  0  0  0  0
 10 22  1  0  0  0  0
M  END
