
  xtb     02032211343D
 xtb: 6.4.1 (23d549d)
 23 24  0     0  0            999 V2000
   -0.6979    3.2824   -0.4932 C   0  0  0  0  0  0  0  0  0  0  0  0
    0.2192    2.5770    0.1573 C   0  0  0  0  0  0  0  0  0  0  0  0
    0.3673    1.1322    0.1077 C   0  0  0  0  0  0  0  0  0  0  0  0
   -0.6624    0.2204    0.0861 C   0  0  0  0  0  0  0  0  0  0  0  0
   -2.0598    0.5188    0.2228 C   0  0  0  0  0  0  0  0  0  0  0  0
   -3.0661   -0.3300    0.0485 C   0  0  0  0  0  0  0  0  0  0  0  0
   -2.9851   -1.6003   -0.3249 F   0  0  0  0  0  0  0  0  0  0  0  0
   -4.3434    0.0030    0.2180 F   0  0  0  0  0  0  0  0  0  0  0  0
   -0.1015   -1.4362   -0.0007 S   0  0  0  0  0  0  0  0  0  0  0  0
    1.5535   -0.9065    0.0038 C   0  0  0  0  0  0  0  0  0  0  0  0
    2.6780   -1.7162   -0.0530 C   0  0  0  0  0  0  0  0  0  0  0  0
    3.9194   -1.1157   -0.0416 C   0  0  0  0  0  0  0  0  0  0  0  0
    4.0380    0.2728    0.0197 C   0  0  0  0  0  0  0  0  0  0  0  0
    2.9223    1.0774    0.0709 C   0  0  0  0  0  0  0  0  0  0  0  0
    1.6519    0.4956    0.0711 C   0  0  0  0  0  0  0  0  0  0  0  0
   -0.7410    4.3550   -0.4120 H   0  0  0  0  0  0  0  0  0  0  0  0
   -1.4136    2.8234   -1.1541 H   0  0  0  0  0  0  0  0  0  0  0  0
    0.9602    3.0882    0.7592 H   0  0  0  0  0  0  0  0  0  0  0  0
   -2.3181    1.5261    0.5139 H   0  0  0  0  0  0  0  0  0  0  0  0
    2.5740   -2.7887   -0.1049 H   0  0  0  0  0  0  0  0  0  0  0  0
    4.8088   -1.7258   -0.0829 H   0  0  0  0  0  0  0  0  0  0  0  0
    5.0208    0.7199    0.0237 H   0  0  0  0  0  0  0  0  0  0  0  0
    3.0224    2.1514    0.1082 H   0  0  0  0  0  0  0  0  0  0  0  0
  1  2  2  0  0  0  0
  2  3  1  0  0  0  0
  3  4  4  0  0  0  0
  4  5  1  0  0  0  0
  5  6  2  0  0  0  0
  6  7  1  0  0  0  0
  6  8  1  0  0  0  0
  4  9  1  0  0  0  0
  9 10  1  0  0  0  0
 10 11  4  0  0  0  0
 11 12  4  0  0  0  0
 12 13  4  0  0  0  0
 13 14  4  0  0  0  0
  3 15  1  0  0  0  0
 10 15  4  0  0  0  0
 14 15  4  0  0  0  0
  1 16  1  0  0  0  0
  1 17  1  0  0  0  0
  2 18  1  0  0  0  0
  5 19  1  0  0  0  0
 11 20  1  0  0  0  0
 12 21  1  0  0  0  0
 13 22  1  0  0  0  0
 14 23  1  0  0  0  0
M  END
