
  xtb     02032210423D
 xtb: 6.4.1 (23d549d)
 36 39  0     0  0            999 V2000
    0.8655   -1.6029    0.2282 f   0  0  0  0  0  0  0  0  0  0  0  0
    2.1788   -1.8199    0.1398 c   0  0  0  0  0  0  0  0  0  0  0  0
    2.3774   -3.0645   -0.2856 f   0  0  0  0  0  0  0  0  0  0  0  0
    3.0856   -0.9048    0.4501 c   0  0  0  0  0  0  0  0  0  0  0  0
    4.5341   -1.0161    0.4096 c   0  0  0  0  0  0  0  0  0  0  0  0
    5.2822    0.0477    0.9446 c   0  0  0  0  0  0  0  0  0  0  0  0
    6.6587    0.0339    0.9528 c   0  0  0  0  0  0  0  0  0  0  0  0
    5.1863   -2.1214   -0.1322 c   0  0  0  0  0  0  0  0  0  0  0  0
    6.5702   -2.1465   -0.1032 c   0  0  0  0  0  0  0  0  0  0  0  0
    7.3203   -1.0689    0.4266 c   0  0  0  0  0  0  0  0  0  0  0  0
    8.7019   -1.4133    0.2621 c   0  0  0  0  0  0  0  0  0  0  0  0
    9.8923   -0.7800    0.5982 c   0  0  0  0  0  0  0  0  0  0  0  0
   11.0825   -1.4182    0.3155 c   0  0  0  0  0  0  0  0  0  0  0  0
   11.0965   -2.6778   -0.2812 c   0  0  0  0  0  0  0  0  0  0  0  0
    9.9270   -3.3270   -0.6261 c   0  0  0  0  0  0  0  0  0  0  0  0
    8.7266   -2.6808   -0.3661 c   0  0  0  0  0  0  0  0  0  0  0  0
    7.4328   -3.1095   -0.5824 n   0  0  0  0  0  0  0  0  0  0  0  0
    7.0589   -4.3174   -1.1926 c   0  0  0  0  0  0  0  0  0  0  0  0
    7.6085   -4.6768   -2.4195 c   0  0  0  0  0  0  0  0  0  0  0  0
    7.2425   -5.8689   -3.0164 c   0  0  0  0  0  0  0  0  0  0  0  0
    6.3212   -6.7023   -2.4044 c   0  0  0  0  0  0  0  0  0  0  0  0
    5.7689   -6.3425   -1.1864 c   0  0  0  0  0  0  0  0  0  0  0  0
    6.1380   -5.1584   -0.5755 c   0  0  0  0  0  0  0  0  0  0  0  0
    2.6826    0.0379    0.7920 h   0  0  0  0  0  0  0  0  0  0  0  0
    4.7557    0.8958    1.3563 h   0  0  0  0  0  0  0  0  0  0  0  0
    7.2163    0.8642    1.3584 h   0  0  0  0  0  0  0  0  0  0  0  0
    4.6357   -2.9326   -0.5779 h   0  0  0  0  0  0  0  0  0  0  0  0
    9.8799    0.1886    1.0746 h   0  0  0  0  0  0  0  0  0  0  0  0
   12.0192   -0.9436    0.5668 h   0  0  0  0  0  0  0  0  0  0  0  0
   12.0438   -3.1594   -0.4744 h   0  0  0  0  0  0  0  0  0  0  0  0
    9.9480   -4.3101   -1.0715 h   0  0  0  0  0  0  0  0  0  0  0  0
    8.3088   -4.0127   -2.9041 h   0  0  0  0  0  0  0  0  0  0  0  0
    7.6723   -6.1436   -3.9683 h   0  0  0  0  0  0  0  0  0  0  0  0
    6.0338   -7.6297   -2.8761 h   0  0  0  0  0  0  0  0  0  0  0  0
    5.0514   -6.9897   -0.7049 h   0  0  0  0  0  0  0  0  0  0  0  0
    5.7251   -4.8858    0.3839 h   0  0  0  0  0  0  0  0  0  0  0  0
  1  2  1  0  0  0  0
  2  3  1  0  0  0  0
  2  4  2  0  0  0  0
  4  5  1  0  0  0  0
  5  6  4  0  0  0  0
  6  7  4  0  0  0  0
  5  8  4  0  0  0  0
  8  9  4  0  0  0  0
  7 10  4  0  0  0  0
  9 10  4  0  0  0  0
 10 11  1  0  0  0  0
 11 12  4  0  0  0  0
 12 13  4  0  0  0  0
 13 14  4  0  0  0  0
 14 15  4  0  0  0  0
 11 16  4  0  0  0  0
 15 16  4  0  0  0  0
  9 17  1  0  0  0  0
 16 17  1  0  0  0  0
 17 18  1  0  0  0  0
 18 19  4  0  0  0  0
 19 20  4  0  0  0  0
 20 21  4  0  0  0  0
 21 22  4  0  0  0  0
 18 23  4  0  0  0  0
 22 23  4  0  0  0  0
  4 24  1  0  0  0  0
  6 25  1  0  0  0  0
  7 26  1  0  0  0  0
  8 27  1  0  0  0  0
 12 28  1  0  0  0  0
 13 29  1  0  0  0  0
 14 30  1  0  0  0  0
 15 31  1  0  0  0  0
 19 32  1  0  0  0  0
 20 33  1  0  0  0  0
 21 34  1  0  0  0  0
 22 35  1  0  0  0  0
 23 36  1  0  0  0  0
M  END
