
  xtb     02032211353D
 xtb: 6.4.1 (23d549d)
 23 23  0     0  0            999 V2000
    3.9274   -0.6494    0.0394 C   0  0  0  0  0  0  0  0  0  0  0  0
    2.9860    0.2866    0.0762 C   0  0  0  0  0  0  0  0  0  0  0  0
    1.5460    0.0793    0.0118 C   0  0  0  0  0  0  0  0  0  0  0  0
    0.9562   -1.1817   -0.0812 C   0  0  0  0  0  0  0  0  0  0  0  0
   -0.4141   -1.3088   -0.1394 C   0  0  0  0  0  0  0  0  0  0  0  0
   -1.2544   -0.1955   -0.1083 C   0  0  0  0  0  0  0  0  0  0  0  0
   -2.7041   -0.3584   -0.1824 C   0  0  0  0  0  0  0  0  0  0  0  0
   -3.3771   -1.4001    0.2889 C   0  0  0  0  0  0  0  0  0  0  0  0
   -0.6754    1.0797   -0.0191 C   0  0  0  0  0  0  0  0  0  0  0  0
   -1.5255    2.3148    0.0337 C   0  0  0  0  0  0  0  0  0  0  0  0
    0.7024    1.1906    0.0420 C   0  0  0  0  0  0  0  0  0  0  0  0
    4.9720   -0.3947    0.0936 H   0  0  0  0  0  0  0  0  0  0  0  0
    3.7039   -1.6989   -0.0463 H   0  0  0  0  0  0  0  0  0  0  0  0
    3.2861    1.3245    0.1613 H   0  0  0  0  0  0  0  0  0  0  0  0
    1.5713   -2.0675   -0.1118 H   0  0  0  0  0  0  0  0  0  0  0  0
   -0.8519   -2.2917   -0.2324 H   0  0  0  0  0  0  0  0  0  0  0  0
   -3.2474    0.4500   -0.6538 H   0  0  0  0  0  0  0  0  0  0  0  0
   -2.8913   -2.2152    0.7988 H   0  0  0  0  0  0  0  0  0  0  0  0
   -4.4480   -1.4684    0.1983 H   0  0  0  0  0  0  0  0  0  0  0  0
   -2.2578    2.2452    0.8367 H   0  0  0  0  0  0  0  0  0  0  0  0
   -2.0647    2.4508   -0.9041 H   0  0  0  0  0  0  0  0  0  0  0  0
   -0.9096    3.1950    0.2015 H   0  0  0  0  0  0  0  0  0  0  0  0
    1.1439    2.1757    0.1164 H   0  0  0  0  0  0  0  0  0  0  0  0
  1  2  2  0  0  0  0
  2  3  1  0  0  0  0
  3  4  4  0  0  0  0
  4  5  4  0  0  0  0
  5  6  4  0  0  0  0
  6  7  1  0  0  0  0
  7  8  2  0  0  0  0
  6  9  4  0  0  0  0
  9 10  1  0  0  0  0
  3 11  4  0  0  0  0
  9 11  4  0  0  0  0
  1 12  1  0  0  0  0
  1 13  1  0  0  0  0
  2 14  1  0  0  0  0
  4 15  1  0  0  0  0
  5 16  1  0  0  0  0
  7 17  1  0  0  0  0
  8 18  1  0  0  0  0
  8 19  1  0  0  0  0
 10 20  1  0  0  0  0
 10 21  1  0  0  0  0
 10 22  1  0  0  0  0
 11 23  1  0  0  0  0
M  END
