
  xtb     02032211353D
 xtb: 6.4.1 (23d549d)
 26 26  0     0  0            999 V2000
   -2.0625   -3.1569   -0.2327 C   0  0  0  0  0  0  0  0  0  0  0  0
   -2.1808   -1.8525   -0.4503 C   0  0  0  0  0  0  0  0  0  0  0  0
   -1.1205   -0.8747   -0.2307 C   0  0  0  0  0  0  0  0  0  0  0  0
    0.2219   -1.2487   -0.2691 C   0  0  0  0  0  0  0  0  0  0  0  0
    1.2520   -0.3444   -0.0605 C   0  0  0  0  0  0  0  0  0  0  0  0
    2.6356   -0.9165   -0.0405 C   0  0  0  0  0  0  0  0  0  0  0  0
    3.0222   -1.7248   -0.8353 O   0  0  0  0  0  0  0  0  0  0  0  0
    3.4118   -0.5338    0.9923 O   0  0  0  0  0  0  0  0  0  0  0  0
    0.9640    1.0121    0.1580 C   0  0  0  0  0  0  0  0  0  0  0  0
    1.9846    2.0577    0.2318 C   0  0  0  0  0  0  0  0  0  0  0  0
    3.1138    2.0606   -0.4657 C   0  0  0  0  0  0  0  0  0  0  0  0
   -0.3766    1.3831    0.2363 C   0  0  0  0  0  0  0  0  0  0  0  0
   -1.4097    0.4737    0.0473 C   0  0  0  0  0  0  0  0  0  0  0  0
   -2.8144    0.9886    0.1164 C   0  0  0  0  0  0  0  0  0  0  0  0
   -3.6747    0.7290   -0.6751 O   0  0  0  0  0  0  0  0  0  0  0  0
   -3.0619    1.8177    1.1494 O   0  0  0  0  0  0  0  0  0  0  0  0
   -2.8845   -3.8266   -0.4162 H   0  0  0  0  0  0  0  0  0  0  0  0
   -1.1607   -3.6071    0.1481 H   0  0  0  0  0  0  0  0  0  0  0  0
   -3.1194   -1.4482   -0.7990 H   0  0  0  0  0  0  0  0  0  0  0  0
    0.4869   -2.2725   -0.4820 H   0  0  0  0  0  0  0  0  0  0  0  0
    3.0002    0.1554    1.5302 H   0  0  0  0  0  0  0  0  0  0  0  0
    1.7293    2.9103    0.8497 H   0  0  0  0  0  0  0  0  0  0  0  0
    3.3774    1.2581   -1.1348 H   0  0  0  0  0  0  0  0  0  0  0  0
    3.8103    2.8785   -0.4034 H   0  0  0  0  0  0  0  0  0  0  0  0
   -0.6080    2.4297    0.3911 H   0  0  0  0  0  0  0  0  0  0  0  0
   -2.2976    1.9286    1.7304 H   0  0  0  0  0  0  0  0  0  0  0  0
  1  2  2  0  0  0  0
  2  3  1  0  0  0  0
  3  4  4  0  0  0  0
  4  5  4  0  0  0  0
  5  6  1  0  0  0  0
  6  7  2  0  0  0  0
  6  8  1  0  0  0  0
  5  9  4  0  0  0  0
  9 10  1  0  0  0  0
 10 11  2  0  0  0  0
  9 12  4  0  0  0  0
  3 13  4  0  0  0  0
 12 13  4  0  0  0  0
 13 14  1  0  0  0  0
 14 15  2  0  0  0  0
 14 16  1  0  0  0  0
  1 17  1  0  0  0  0
  1 18  1  0  0  0  0
  2 19  1  0  0  0  0
  4 20  1  0  0  0  0
  8 21  1  0  0  0  0
 10 22  1  0  0  0  0
 11 23  1  0  0  0  0
 11 24  1  0  0  0  0
 12 25  1  0  0  0  0
 16 26  1  0  0  0  0
M  END
