
 OpenBabel02032210523D

 19 19  0  0  0  0  0  0  0  0999 V2000
    1.7324   -1.6187   -0.0325 C   0  0  0  0  0  0  0  0  0  0  0  0
    1.7957   -0.3090   -0.3216 C   0  0  0  0  0  0  0  0  0  0  0  0
    2.6997    0.3154   -1.3541 C   0  0  0  0  0  0  0  0  0  0  0  0
    3.6353   -0.4939   -2.0427 C   0  0  0  0  0  0  0  0  0  0  0  0
    4.4663    0.0306   -2.9732 N   0  0  0  0  0  0  0  0  0  0  0  0
    4.4440    1.3426   -3.2885 C   0  0  0  0  0  0  0  0  0  0  0  0
    3.5525    2.1991   -2.6554 C   0  0  0  0  0  0  0  0  0  0  0  0
    2.6556    1.7177   -1.6728 C   0  0  0  0  0  0  0  0  0  0  0  0
    1.6811    2.6527   -0.9939 C   0  0  0  0  0  0  0  0  0  0  0  0
    1.5269    3.9786   -1.1867 C   0  0  0  0  0  0  0  0  0  0  0  0
    2.2594    4.7117   -2.0589 F   0  0  0  0  0  0  0  0  0  0  0  0
    0.5784    4.6350   -0.4671 F   0  0  0  0  0  0  0  0  0  0  0  0
    1.0419   -1.9611    0.7323 H   0  0  0  0  0  0  0  0  0  0  0  0
    2.3268   -2.3767   -0.5210 H   0  0  0  0  0  0  0  0  0  0  0  0
    1.1223    0.2951    0.2626 H   0  0  0  0  0  0  0  0  0  0  0  0
    3.7287   -1.5497   -1.8531 H   0  0  0  0  0  0  0  0  0  0  0  0
    5.1241    1.7242   -4.0391 H   0  0  0  0  0  0  0  0  0  0  0  0
    3.5954    3.2250   -2.9636 H   0  0  0  0  0  0  0  0  0  0  0  0
    1.0000    2.2601   -0.2594 H   0  0  0  0  0  0  0  0  0  0  0  0
  1  2  2  0  0  0  0
  1 13  1  0  0  0  0
  1 14  1  0  0  0  0
  2  3  1  0  0  0  0
  2 15  1  0  0  0  0
  3  4  1  0  0  0  0
  3  8  2  0  0  0  0
  4  5  2  0  0  0  0
  4 16  1  0  0  0  0
  5  6  1  0  0  0  0
  6  7  2  0  0  0  0
  6 17  1  0  0  0  0
  7  8  1  0  0  0  0
  7 18  1  0  0  0  0
  8  9  1  0  0  0  0
  9 10  2  0  0  0  0
  9 19  1  0  0  0  0
 10 11  1  0  0  0  0
 10 12  1  0  0  0  0
M  END
