
 OpenBabel02012213503D

 22 23  0  0  0  0  0  0  0  0999 V2000
    2.6914   -0.0882    0.2285 C   0  0  0  0  0  0  0  0  0  0  0  0
    1.2233    0.0311   -0.0558 C   0  0  0  0  0  0  0  0  0  0  0  0
    0.6069    1.2916   -0.1617 C   0  0  0  0  0  0  0  0  0  0  0  0
   -0.7497    1.2356   -0.4288 C   0  0  0  0  0  0  0  0  0  0  0  0
   -1.1887   -0.3757   -0.5357 S   0  0  0  0  0  0  0  0  0  0  0  0
    0.3323   -1.0452   -0.2438 C   0  0  0  0  0  0  0  0  0  0  0  0
    0.6311   -2.5097   -0.2009 C   0  0  0  0  0  0  0  0  0  0  0  0
    2.1462   -3.1796    0.1200 S   0  0  0  0  0  0  0  0  0  0  0  0
    1.7092   -4.7906    0.0029 C   0  0  0  0  0  0  0  0  0  0  0  0
    0.3586   -4.8463   -0.2935 C   0  0  0  0  0  0  0  0  0  0  0  0
   -0.2554   -3.5856   -0.4101 C   0  0  0  0  0  0  0  0  0  0  0  0
   -1.7160   -3.4658   -0.7305 C   0  0  0  0  0  0  0  0  0  0  0  0
    3.1605    0.9134    0.3291 H   0  0  0  0  0  0  0  0  0  0  0  0
    3.1946   -0.6187   -0.6062 H   0  0  0  0  0  0  0  0  0  0  0  0
    2.8489   -0.6359    1.1806 H   0  0  0  0  0  0  0  0  0  0  0  0
    1.1374    2.2280   -0.0465 H   0  0  0  0  0  0  0  0  0  0  0  0
   -1.4081    2.0852   -0.5475 H   0  0  0  0  0  0  0  0  0  0  0  0
    2.3648   -5.6405    0.1347 H   0  0  0  0  0  0  0  0  0  0  0  0
   -0.1690   -5.7825   -0.4224 H   0  0  0  0  0  0  0  0  0  0  0  0
   -2.1813   -4.4674   -0.8499 H   0  0  0  0  0  0  0  0  0  0  0  0
   -1.8485   -2.9121   -1.6828 H   0  0  0  0  0  0  0  0  0  0  0  0
   -2.2422   -2.9415    0.0938 H   0  0  0  0  0  0  0  0  0  0  0  0
  1  2  1  0  0  0  0
  1 13  1  0  0  0  0
  1 14  1  0  0  0  0
  1 15  1  0  0  0  0
  2  3  1  0  0  0  0
  2  6  2  0  0  0  0
  3  4  2  0  0  0  0
  3 16  1  0  0  0  0
  4  5  1  0  0  0  0
  4 17  1  0  0  0  0
  5  6  1  0  0  0  0
  6  7  1  0  0  0  0
  7  8  1  0  0  0  0
  7 11  2  0  0  0  0
  8  9  1  0  0  0  0
  9 10  2  0  0  0  0
  9 18  1  0  0  0  0
 10 11  1  0  0  0  0
 10 19  1  0  0  0  0
 11 12  1  0  0  0  0
 12 20  1  0  0  0  0
 12 21  1  0  0  0  0
 12 22  1  0  0  0  0
M  END
