 xtb: 6.5.0 (unknown)
          08122213083D

 26  0  0     0  0            999 V2000
    0.7592   -4.1944    0.0205 C   0  0  0  0  0  0  0  0  0  0  0  0
    1.3865   -3.1199   -0.4370 C   0  0  0  0  0  0  0  0  0  0  0  0
    0.8827   -1.7516   -0.3088 C   0  0  0  0  0  0  0  0  0  0  0  0
   -0.4629   -1.5062   -0.4364 C   0  0  0  0  0  0  0  0  0  0  0  0
   -1.0121   -0.2109   -0.3548 C   0  0  0  0  0  0  0  0  0  0  0  0
   -2.4560   -0.0501   -0.4986 C   0  0  0  0  0  0  0  0  0  0  0  0
   -3.2132    0.8264    0.1420 C   0  0  0  0  0  0  0  0  0  0  0  0
   -2.8384    1.6932    1.0665 F   0  0  0  0  0  0  0  0  0  0  0  0
   -4.5301    0.9132   -0.0334 F   0  0  0  0  0  0  0  0  0  0  0  0
   -0.1427    0.8417   -0.1800 C   0  0  0  0  0  0  0  0  0  0  0  0
   -0.6091    2.1067   -0.1892 F   0  0  0  0  0  0  0  0  0  0  0  0
    1.2485    0.6589   -0.0350 C   0  0  0  0  0  0  0  0  0  0  0  0
    2.1154    1.7534    0.1664 C   0  0  0  0  0  0  0  0  0  0  0  0
    3.4565    1.5527    0.3334 C   0  0  0  0  0  0  0  0  0  0  0  0
    3.9787    0.2524    0.3124 C   0  0  0  0  0  0  0  0  0  0  0  0
    3.1590   -0.8252    0.1114 C   0  0  0  0  0  0  0  0  0  0  0  0
    1.7729   -0.6604   -0.0842 C   0  0  0  0  0  0  0  0  0  0  0  0
    1.1615   -5.1837   -0.1137 H   0  0  0  0  0  0  0  0  0  0  0  0
   -0.1681   -4.1261    0.5644 H   0  0  0  0  0  0  0  0  0  0  0  0
    2.3316   -3.2323   -0.9510 H   0  0  0  0  0  0  0  0  0  0  0  0
   -1.1360   -2.3299   -0.6197 H   0  0  0  0  0  0  0  0  0  0  0  0
   -2.9631   -0.7290   -1.1675 H   0  0  0  0  0  0  0  0  0  0  0  0
    1.6950    2.7472    0.1944 H   0  0  0  0  0  0  0  0  0  0  0  0
    4.1178    2.3915    0.4899 H   0  0  0  0  0  0  0  0  0  0  0  0
    5.0382    0.1042    0.4602 H   0  0  0  0  0  0  0  0  0  0  0  0
    3.5775   -1.8194    0.1149 H   0  0  0  0  0  0  0  0  0  0  0  0
M  END
