22

C          2.29231       -1.35484       -0.07099
O          2.31860        0.02320       -0.12640
C          2.90400        0.77320       -1.09900
C          2.41130        2.04450       -1.46320
C          3.03740        2.79290       -2.47190
C          2.51180        4.14630       -2.85700
C          4.16300        2.26850       -3.12300
F          4.78270        2.97540       -4.10220
C          4.65780        1.01240       -2.76880
C          4.03740        0.25940       -1.75990
C          4.58240       -1.09220       -1.38870
H          1.74101       -1.67012        0.83835
H          3.32696       -1.75521       -0.01435
H          1.77059       -1.76632       -0.96134
H          1.54290        2.45690       -0.96690
H          1.62120        4.42660       -2.25520
H          2.22290        4.14380       -3.92910
H          3.29870        4.91250       -2.69390
H          5.52880        0.62630       -3.28410
H          5.47300       -1.35710       -1.99740
H          3.80450       -1.86730       -1.55320
H          4.87860       -1.09440       -0.31860
22

C          2.96011       -0.87485        0.70109
O          2.31860        0.02320       -0.12640
C          2.90400        0.77320       -1.09900
C          2.41130        2.04450       -1.46320
C          3.03740        2.79290       -2.47190
C          2.51180        4.14630       -2.85700
C          4.16300        2.26850       -3.12300
F          4.78270        2.97540       -4.10220
C          4.65780        1.01240       -2.76880
C          4.03740        0.25940       -1.75990
C          4.58240       -1.09220       -1.38870
H          2.21660       -1.33031        1.38665
H          3.72915       -0.35267        1.30927
H          3.43008       -1.68341        0.10143
H          1.54290        2.45690       -0.96690
H          1.62120        4.42660       -2.25520
H          2.22290        4.14380       -3.92910
H          3.29870        4.91250       -2.69390
H          5.52880        0.62630       -3.28410
H          5.47300       -1.35710       -1.99740
H          3.80450       -1.86730       -1.55320
H          4.87860       -1.09440       -0.31860
22

C          2.73855       -1.21874        0.30256
O          2.31860        0.02320       -0.12640
C          2.90400        0.77320       -1.09900
C          2.41130        2.04450       -1.46320
C          3.03740        2.79290       -2.47190
C          2.51180        4.14630       -2.85700
C          4.16300        2.26850       -3.12300
F          4.78270        2.97540       -4.10220
C          4.65780        1.01240       -2.76880
C          4.03740        0.25940       -1.75990
C          4.58240       -1.09220       -1.38870
H          2.05850       -1.57414        1.10347
H          3.76776       -1.15301        0.71534
H          2.70801       -1.94664       -0.53616
H          1.54290        2.45690       -0.96690
H          1.62120        4.42660       -2.25520
H          2.22290        4.14380       -3.92910
H          3.29870        4.91250       -2.69390
H          5.52880        0.62630       -3.28410
H          5.47300       -1.35710       -1.99740
H          3.80450       -1.86730       -1.55320
H          4.87860       -1.09440       -0.31860
22

C          1.63565        0.50749        0.96987
O          2.31860        0.02320       -0.12640
C          2.90400        0.77320       -1.09900
C          2.41130        2.04450       -1.46320
C          3.03740        2.79290       -2.47190
C          2.51180        4.14630       -2.85700
C          4.16300        2.26850       -3.12300
F          4.78270        2.97540       -4.10220
C          4.65780        1.01240       -2.76880
C          4.03740        0.25940       -1.75990
C          4.58240       -1.09220       -1.38870
H          1.27730       -0.34695        1.57958
H          0.75626        1.10124        0.64106
H          2.30700        1.13238        1.59680
H          1.54290        2.45690       -0.96690
H          1.62120        4.42660       -2.25520
H          2.22290        4.14380       -3.92910
H          3.29870        4.91250       -2.69390
H          5.52880        0.62630       -3.28410
H          5.47300       -1.35710       -1.99740
H          3.80450       -1.86730       -1.55320
H          4.87860       -1.09440       -0.31860
22

C          1.20923        0.37742        0.61292
O          2.31860        0.02320       -0.12640
C          2.90400        0.77320       -1.09900
C          2.41130        2.04450       -1.46320
C          3.03740        2.79290       -2.47190
C          2.51180        4.14630       -2.85700
C          4.16300        2.26850       -3.12300
F          4.78270        2.97540       -4.10220
C          4.65780        1.01240       -2.76880
C          4.03740        0.25940       -1.75990
C          4.58240       -1.09220       -1.38870
H          0.97391       -0.43868        1.32624
H          0.33503        0.52578       -0.05623
H          1.41121        1.30469        1.19051
H          1.54290        2.45690       -0.96690
H          1.62120        4.42660       -2.25520
H          2.22290        4.14380       -3.92910
H          3.29870        4.91250       -2.69390
H          5.52880        0.62630       -3.28410
H          5.47300       -1.35710       -1.99740
H          3.80450       -1.86730       -1.55320
H          4.87860       -1.09440       -0.31860
22

C          0.98195        0.03763        0.21410
O          2.31860        0.02320       -0.12640
C          2.90400        0.77320       -1.09900
C          2.41130        2.04450       -1.46320
C          3.03740        2.79290       -2.47190
C          2.51180        4.14630       -2.85700
C          4.16300        2.26850       -3.12300
F          4.78270        2.97540       -4.10220
C          4.65780        1.01240       -2.76880
C          4.03740        0.25940       -1.75990
C          4.58240       -1.09220       -1.38870
H          0.81174       -0.67960        1.04286
H          0.36256       -0.27169       -0.65461
H          0.68254        1.05122        0.55647
H          1.54290        2.45690       -0.96690
H          1.62120        4.42660       -2.25520
H          2.22290        4.14380       -3.92910
H          3.29870        4.91250       -2.69390
H          5.52880        0.62630       -3.28410
H          5.47300       -1.35710       -1.99740
H          3.80450       -1.86730       -1.55320
H          4.87860       -1.09440       -0.31860
