
 OpenBabel02012214053D

 22 22  0  0  0  0  0  0  0  0999 V2000
    1.1949    0.3668    0.5961 C   0  0  0  0  0  0  0  0  0  0  0  0
    2.3186    0.0232   -0.1264 O   0  0  0  0  0  0  0  0  0  0  0  0
    2.9040    0.7732   -1.0990 C   0  0  0  0  0  0  0  0  0  0  0  0
    2.4113    2.0445   -1.4632 C   0  0  0  0  0  0  0  0  0  0  0  0
    3.0374    2.7929   -2.4719 C   0  0  0  0  0  0  0  0  0  0  0  0
    2.5118    4.1463   -2.8570 C   0  0  0  0  0  0  0  0  0  0  0  0
    4.1630    2.2685   -3.1230 C   0  0  0  0  0  0  0  0  0  0  0  0
    4.7827    2.9754   -4.1022 F   0  0  0  0  0  0  0  0  0  0  0  0
    4.6578    1.0124   -2.7688 C   0  0  0  0  0  0  0  0  0  0  0  0
    4.0374    0.2594   -1.7599 C   0  0  0  0  0  0  0  0  0  0  0  0
    4.5824   -1.0922   -1.3887 C   0  0  0  0  0  0  0  0  0  0  0  0
    0.9637   -0.4462    1.3143 H   0  0  0  0  0  0  0  0  0  0  0  0
    0.3267    0.4951   -0.0849 H   0  0  0  0  0  0  0  0  0  0  0  0
    1.3753    1.3025    1.1672 H   0  0  0  0  0  0  0  0  0  0  0  0
    1.5429    2.4569   -0.9669 H   0  0  0  0  0  0  0  0  0  0  0  0
    1.6212    4.4266   -2.2552 H   0  0  0  0  0  0  0  0  0  0  0  0
    2.2229    4.1438   -3.9291 H   0  0  0  0  0  0  0  0  0  0  0  0
    3.2987    4.9125   -2.6939 H   0  0  0  0  0  0  0  0  0  0  0  0
    5.5288    0.6263   -3.2841 H   0  0  0  0  0  0  0  0  0  0  0  0
    5.4730   -1.3571   -1.9974 H   0  0  0  0  0  0  0  0  0  0  0  0
    3.8045   -1.8673   -1.5532 H   0  0  0  0  0  0  0  0  0  0  0  0
    4.8786   -1.0944   -0.3186 H   0  0  0  0  0  0  0  0  0  0  0  0
  1  2  1  0  0  0  0
  1 12  1  0  0  0  0
  1 13  1  0  0  0  0
  1 14  1  0  0  0  0
  2  3  1  0  0  0  0
  3  4  1  0  0  0  0
  3 10  2  0  0  0  0
  4  5  2  0  0  0  0
  4 15  1  0  0  0  0
  5  6  1  0  0  0  0
  5  7  1  0  0  0  0
  6 16  1  0  0  0  0
  6 17  1  0  0  0  0
  6 18  1  0  0  0  0
  7  8  1  0  0  0  0
  7  9  2  0  0  0  0
  9 10  1  0  0  0  0
  9 19  1  0  0  0  0
 10 11  1  0  0  0  0
 11 20  1  0  0  0  0
 11 21  1  0  0  0  0
 11 22  1  0  0  0  0
M  END
