
 OpenBabel02012214053D

 22 22  0  0  0  0  0  0  0  0999 V2000
    1.1701    0.3596    0.4428 C   0  0  0  0  0  0  0  0  0  0  0  0
    2.5265    0.1146    0.0866 O   0  0  0  0  0  0  0  0  0  0  0  0
    3.0084    0.8506   -0.9642 C   0  0  0  0  0  0  0  0  0  0  0  0
    2.5253    2.1202   -1.3114 C   0  0  0  0  0  0  0  0  0  0  0  0
    3.0576    2.8147   -2.4048 C   0  0  0  0  0  0  0  0  0  0  0  0
    2.5140    4.1488   -2.8137 C   0  0  0  0  0  0  0  0  0  0  0  0
    4.0948    2.2265   -3.1312 C   0  0  0  0  0  0  0  0  0  0  0  0
    4.6145    2.8675   -4.1879 F   0  0  0  0  0  0  0  0  0  0  0  0
    4.6021    0.9788   -2.7826 C   0  0  0  0  0  0  0  0  0  0  0  0
    4.0665    0.2779   -1.6927 C   0  0  0  0  0  0  0  0  0  0  0  0
    4.6075   -1.0770   -1.3350 C   0  0  0  0  0  0  0  0  0  0  0  0
    0.8545   -0.4300    1.1294 H   0  0  0  0  0  0  0  0  0  0  0  0
    0.5142    0.3244   -0.4340 H   0  0  0  0  0  0  0  0  0  0  0  0
    1.0704    1.3153    0.9697 H   0  0  0  0  0  0  0  0  0  0  0  0
    1.7346    2.5900   -0.7344 H   0  0  0  0  0  0  0  0  0  0  0  0
    1.7886    4.5256   -2.0851 H   0  0  0  0  0  0  0  0  0  0  0  0
    2.0081    4.0652   -3.7807 H   0  0  0  0  0  0  0  0  0  0  0  0
    3.3201    4.8857   -2.8896 H   0  0  0  0  0  0  0  0  0  0  0  0
    5.4109    0.5611   -3.3750 H   0  0  0  0  0  0  0  0  0  0  0  0
    5.4337   -1.3660   -1.9926 H   0  0  0  0  0  0  0  0  0  0  0  0
    3.8238   -1.8347   -1.4348 H   0  0  0  0  0  0  0  0  0  0  0  0
    4.9862   -1.0782   -0.3079 H   0  0  0  0  0  0  0  0  0  0  0  0
  1  2  1  0  0  0  0
  1 12  1  0  0  0  0
  1 13  1  0  0  0  0
  1 14  1  0  0  0  0
  2  3  1  0  0  0  0
  3  4  1  0  0  0  0
  3 10  2  0  0  0  0
  4  5  2  0  0  0  0
  4 15  1  0  0  0  0
  5  6  1  0  0  0  0
  5  7  1  0  0  0  0
  6 16  1  0  0  0  0
  6 17  1  0  0  0  0
  6 18  1  0  0  0  0
  7  8  1  0  0  0  0
  7  9  2  0  0  0  0
  9 10  1  0  0  0  0
  9 19  1  0  0  0  0
 10 11  1  0  0  0  0
 11 20  1  0  0  0  0
 11 21  1  0  0  0  0
 11 22  1  0  0  0  0
M  END
