
 OpenBabel02032210513D

 24 24  0  0  0  0  0  0  0  0999 V2000
    1.0067    0.0810    0.1847 C   0  0  0  0  0  0  0  0  0  0  0  0
    2.2022   -0.3103   -0.2770 C   0  0  0  0  0  0  0  0  0  0  0  0
    2.9713    0.3736   -1.3560 C   0  0  0  0  0  0  0  0  0  0  0  0
    4.2066   -0.1742   -1.7355 C   0  0  0  0  0  0  0  0  0  0  0  0
    4.9946    0.4109   -2.7421 C   0  0  0  0  0  0  0  0  0  0  0  0
    6.2955   -0.2507   -3.0696 C   0  0  0  0  0  0  0  0  0  0  0  0
    7.2171    0.1546   -3.9612 C   0  0  0  0  0  0  0  0  0  0  0  0
    7.0856    1.2736   -4.7149 F   0  0  0  0  0  0  0  0  0  0  0  0
    8.3464   -0.5850   -4.1173 F   0  0  0  0  0  0  0  0  0  0  0  0
    4.5157    1.5737   -3.3768 C   0  0  0  0  0  0  0  0  0  0  0  0
    3.2875    2.1391   -3.0179 C   0  0  0  0  0  0  0  0  0  0  0  0
    2.8869    3.2620   -3.6709 O   0  0  0  0  0  0  0  0  0  0  0  0
    1.7214    3.9626   -3.4379 C   0  0  0  0  0  0  0  0  0  0  0  0
    2.5167    1.5367   -2.0051 C   0  0  0  0  0  0  0  0  0  0  0  0
    0.5291   -0.4885    0.9756 H   0  0  0  0  0  0  0  0  0  0  0  0
    0.4796    0.9464   -0.1931 H   0  0  0  0  0  0  0  0  0  0  0  0
    2.6381   -1.1970    0.1758 H   0  0  0  0  0  0  0  0  0  0  0  0
    4.5611   -1.0701   -1.2374 H   0  0  0  0  0  0  0  0  0  0  0  0
    6.5310   -1.1619   -2.5257 H   0  0  0  0  0  0  0  0  0  0  0  0
    5.0687    2.0670   -4.1567 H   0  0  0  0  0  0  0  0  0  0  0  0
    1.6753    4.8286   -4.1294 H   0  0  0  0  0  0  0  0  0  0  0  0
    1.7052    4.3422   -2.3939 H   0  0  0  0  0  0  0  0  0  0  0  0
    0.8386    3.3143   -3.6236 H   0  0  0  0  0  0  0  0  0  0  0  0
    1.5728    1.9789   -1.7334 H   0  0  0  0  0  0  0  0  0  0  0  0
  1  2  2  0  0  0  0
  1 15  1  0  0  0  0
  1 16  1  0  0  0  0
  2  3  1  0  0  0  0
  2 17  1  0  0  0  0
  3  4  1  0  0  0  0
  3 14  2  0  0  0  0
  4  5  2  0  0  0  0
  4 18  1  0  0  0  0
  5  6  1  0  0  0  0
  5 10  1  0  0  0  0
  6  7  2  0  0  0  0
  6 19  1  0  0  0  0
  7  8  1  0  0  0  0
  7  9  1  0  0  0  0
 10 11  2  0  0  0  0
 10 20  1  0  0  0  0
 11 12  1  0  0  0  0
 11 14  1  0  0  0  0
 12 13  1  0  0  0  0
 13 21  1  0  0  0  0
 13 22  1  0  0  0  0
 13 23  1  0  0  0  0
 14 24  1  0  0  0  0
M  END
