
 OpenBabel02012213503D

 24 25  0  0  0  0  0  0  0  0999 V2000
    0.9321   -0.0885    0.0685 C   0  0  0  0  0  0  0  0  0  0  0  0
    2.4310   -0.1368    0.0820 C   0  0  0  0  0  0  0  0  0  0  0  0
    3.1114   -1.3567    0.0622 C   0  0  0  0  0  0  0  0  0  0  0  0
    4.5072   -1.3860    0.0088 C   0  0  0  0  0  0  0  0  0  0  0  0
    5.2487   -0.1945   -0.0375 C   0  0  0  0  0  0  0  0  0  0  0  0
    6.6476   -0.2076   -0.1560 C   0  0  0  0  0  0  0  0  0  0  0  0
    7.3704    0.9856   -0.2236 C   0  0  0  0  0  0  0  0  0  0  0  0
    6.7130    2.2144   -0.1487 C   0  0  0  0  0  0  0  0  0  0  0  0
    7.4786    3.5038   -0.1954 C   0  0  0  0  0  0  0  0  0  0  0  0
    5.3173    2.2352   -0.0141 C   0  0  0  0  0  0  0  0  0  0  0  0
    4.5715    1.0421    0.0198 C   0  0  0  0  0  0  0  0  0  0  0  0
    3.1679    1.0563    0.0862 C   0  0  0  0  0  0  0  0  0  0  0  0
    0.4976   -1.0937    0.0477 H   0  0  0  0  0  0  0  0  0  0  0  0
    0.5851    0.4414   -0.8251 H   0  0  0  0  0  0  0  0  0  0  0  0
    0.5576    0.4245    0.9599 H   0  0  0  0  0  0  0  0  0  0  0  0
    2.5626   -2.2952    0.0727 H   0  0  0  0  0  0  0  0  0  0  0  0
    5.0118   -2.3480   -0.0147 H   0  0  0  0  0  0  0  0  0  0  0  0
    7.1842   -1.1516   -0.2131 H   0  0  0  0  0  0  0  0  0  0  0  0
    8.4505    0.9431   -0.3403 H   0  0  0  0  0  0  0  0  0  0  0  0
    8.5317    3.3351   -0.4425 H   0  0  0  0  0  0  0  0  0  0  0  0
    7.4319    4.0036    0.7770 H   0  0  0  0  0  0  0  0  0  0  0  0
    7.0612    4.1654   -0.9613 H   0  0  0  0  0  0  0  0  0  0  0  0
    4.8041    3.1920    0.0516 H   0  0  0  0  0  0  0  0  0  0  0  0
    2.6397    2.0057    0.1136 H   0  0  0  0  0  0  0  0  0  0  0  0
  1  2  1  0  0  0  0
  1 13  1  0  0  0  0
  1 14  1  0  0  0  0
  1 15  1  0  0  0  0
  2  3  1  0  0  0  0
  2 12  2  0  0  0  0
  3  4  2  0  0  0  0
  3 16  1  0  0  0  0
  4  5  1  0  0  0  0
  4 17  1  0  0  0  0
  5  6  1  0  0  0  0
  5 11  2  0  0  0  0
  6  7  2  0  0  0  0
  6 18  1  0  0  0  0
  7  8  1  0  0  0  0
  7 19  1  0  0  0  0
  8  9  1  0  0  0  0
  8 10  2  0  0  0  0
  9 20  1  0  0  0  0
  9 21  1  0  0  0  0
  9 22  1  0  0  0  0
 10 11  1  0  0  0  0
 10 23  1  0  0  0  0
 11 12  1  0  0  0  0
 12 24  1  0  0  0  0
M  END
