
  xtb     02012213533D
 xtb: 6.4.1 (23d549d)
 24 24  0     0  0            999 V2000
    2.4795    1.1270    0.1082 c   0  0  0  0  0  0  0  0  0  0  0  0
    1.1946    0.3628    0.0366 c   0  0  0  0  0  0  0  0  0  0  0  0
   -0.0355    1.0076    0.0837 c   0  0  0  0  0  0  0  0  0  0  0  0
   -1.2319    0.3066    0.0181 c   0  0  0  0  0  0  0  0  0  0  0  0
   -2.5510    1.0155    0.0699 c   0  0  0  0  0  0  0  0  0  0  0  0
   -1.1935   -1.0808   -0.0979 c   0  0  0  0  0  0  0  0  0  0  0  0
    0.0246   -1.7237   -0.1452 c   0  0  0  0  0  0  0  0  0  0  0  0
    0.2080   -3.5081   -0.2939 s   0  0  0  0  0  0  0  0  0  0  0  0
   -1.4637   -4.2240   -0.3722 c   0  0  0  0  0  0  0  0  0  0  0  0
    0.8666   -3.7820   -1.5434 o   0  0  0  0  0  0  0  0  0  0  0  0
    0.8403   -3.9891    0.9057 o   0  0  0  0  0  0  0  0  0  0  0  0
    1.2110   -1.0220   -0.0797 c   0  0  0  0  0  0  0  0  0  0  0  0
    2.2971    2.1950    0.1928 h   0  0  0  0  0  0  0  0  0  0  0  0
    3.0760    0.9425   -0.7838 h   0  0  0  0  0  0  0  0  0  0  0  0
    3.0621    0.8014    0.9684 h   0  0  0  0  0  0  0  0  0  0  0  0
   -0.0621    2.0845    0.1738 h   0  0  0  0  0  0  0  0  0  0  0  0
   -2.4132    2.0899    0.1553 h   0  0  0  0  0  0  0  0  0  0  0  0
   -3.1329    0.6710    0.9236 h   0  0  0  0  0  0  0  0  0  0  0  0
   -3.1276    0.8094   -0.8307 h   0  0  0  0  0  0  0  0  0  0  0  0
   -2.1177   -1.6345   -0.1494 h   0  0  0  0  0  0  0  0  0  0  0  0
   -1.9683   -3.8356   -1.2469 h   0  0  0  0  0  0  0  0  0  0  0  0
   -1.9867   -3.9884    0.5452 h   0  0  0  0  0  0  0  0  0  0  0  0
   -1.3262   -5.2947   -0.4620 h   0  0  0  0  0  0  0  0  0  0  0  0
    2.1390   -1.5704   -0.1208 h   0  0  0  0  0  0  0  0  0  0  0  0
  1  2  1  0  0  0  0
  2  3  4  0  0  0  0
  3  4  4  0  0  0  0
  4  5  1  0  0  0  0
  4  6  4  0  0  0  0
  6  7  4  0  0  0  0
  7  8  1  0  0  0  0
  8  9  1  0  0  0  0
  8 10  2  0  0  0  0
  8 11  2  0  0  0  0
  2 12  4  0  0  0  0
  7 12  4  0  0  0  0
  1 13  1  0  0  0  0
  1 14  1  0  0  0  0
  1 15  1  0  0  0  0
  3 16  1  0  0  0  0
  5 17  1  0  0  0  0
  5 18  1  0  0  0  0
  5 19  1  0  0  0  0
  6 20  1  0  0  0  0
  9 21  1  0  0  0  0
  9 22  1  0  0  0  0
  9 23  1  0  0  0  0
 12 24  1  0  0  0  0
M  END
