
 OpenBabel02012214103D

 18 18  0  0  0  0  0  0  0  0999 V2000
    1.0861   -0.0954   -0.0062 C   0  0  0  0  0  0  0  0  0  0  0  0
    2.5824   -0.0816   -0.0047 C   0  0  0  0  0  0  0  0  0  0  0  0
    3.2968    1.1078   -0.0024 C   0  0  0  0  0  0  0  0  0  0  0  0
    4.6456    1.1794    0.0009 N   0  0  0  0  0  0  0  0  0  0  0  0
    5.3332    0.0078    0.0024 C   0  0  0  0  0  0  0  0  0  0  0  0
    6.7651    0.1631    0.0085 C   0  0  0  0  0  0  0  0  0  0  0  0
    7.9246    0.2469    0.0124 N   0  0  0  0  0  0  0  0  0  0  0  0
    4.7168   -1.2460    0.0001 C   0  0  0  0  0  0  0  0  0  0  0  0
    5.4667   -2.5458    0.0036 C   0  0  0  0  0  0  0  0  0  0  0  0
    3.3140   -1.2718   -0.0042 C   0  0  0  0  0  0  0  0  0  0  0  0
    0.6757    0.9199   -0.0053 H   0  0  0  0  0  0  0  0  0  0  0  0
    0.7110   -0.6083    0.8853 H   0  0  0  0  0  0  0  0  0  0  0  0
    0.7122   -0.6064   -0.8993 H   0  0  0  0  0  0  0  0  0  0  0  0
    2.7927    2.0712   -0.0024 H   0  0  0  0  0  0  0  0  0  0  0  0
    6.5519   -2.4142    0.0080 H   0  0  0  0  0  0  0  0  0  0  0  0
    5.2108   -3.1272   -0.8884 H   0  0  0  0  0  0  0  0  0  0  0  0
    5.2038   -3.1257    0.8946 H   0  0  0  0  0  0  0  0  0  0  0  0
    2.7897   -2.2263   -0.0061 H   0  0  0  0  0  0  0  0  0  0  0  0
  1  2  1  0  0  0  0
  1 11  1  0  0  0  0
  1 12  1  0  0  0  0
  1 13  1  0  0  0  0
  2  3  1  0  0  0  0
  2 10  2  0  0  0  0
  3  4  2  0  0  0  0
  3 14  1  0  0  0  0
  4  5  1  0  0  0  0
  5  6  1  0  0  0  0
  5  8  2  0  0  0  0
  6  7  3  0  0  0  0
  8  9  1  0  0  0  0
  8 10  1  0  0  0  0
  9 15  1  0  0  0  0
  9 16  1  0  0  0  0
  9 17  1  0  0  0  0
 10 18  1  0  0  0  0
M  END
