38

O          0.95670        0.02500        0.10390
C          2.17890        0.03770        0.07450
C          2.86380        1.25240       -0.04320
C          2.14630        2.46500       -0.13320
C          2.81300        3.67710       -0.27410
C          4.19970        3.70150       -0.33780
C          4.92990        2.51630       -0.24890
C          4.28560        1.25900       -0.08240
N          4.99520        0.06680        0.00660
C          6.45240        0.07970       -0.02590
C          7.19553       -0.89866        0.65626
C          8.59162       -0.89007        0.61703
C          9.29014        0.09172       -0.10756
C         10.78328        0.01929       -0.10428
C         11.56977       -0.63642       -0.97573
F         11.08856       -1.35559       -2.01923
F         12.91727       -0.58935       -0.80577
C          8.54440        1.07581       -0.78935
C          7.14727        1.06758       -0.74517
C          4.31530       -1.13950        0.13000
C          2.89340       -1.16250        0.15870
C          2.20650       -2.38970        0.28430
C          2.90420       -3.58740        0.39440
C          4.29210       -3.58320        0.39180
C          4.99250       -2.38330        0.26690
H          1.06340        2.47960       -0.10000
H          2.25150        4.59980       -0.34430
H          4.71490        4.64570       -0.46070
H          6.00000        2.61570       -0.32520
H          6.68857       -1.67638        1.21371
H          9.12899       -1.66263        1.15362
H         11.29659        0.55016        0.69355
H          9.00781        1.86078       -1.35981
H          6.59965        1.83869       -1.27318
H          1.12380       -2.42680        0.30340
H          2.36600       -4.52160        0.49240
H          4.83250       -4.51620        0.49120
H          6.06610       -2.46280        0.29290
38

O          0.95670        0.02500        0.10390
C          2.17890        0.03770        0.07450
C          2.86380        1.25240       -0.04320
C          2.14630        2.46500       -0.13320
C          2.81300        3.67710       -0.27410
C          4.19970        3.70150       -0.33780
C          4.92990        2.51630       -0.24890
C          4.28560        1.25900       -0.08240
N          4.99520        0.06680        0.00660
C          6.45240        0.07970       -0.02590
C          7.19553       -0.89866        0.65626
C          8.59162       -0.89007        0.61703
C          9.29014        0.09172       -0.10756
C         10.78328        0.01929       -0.10428
C         11.62100        0.41500       -1.07875
F         11.20109        0.95363       -2.24973
F         12.95885        0.26375       -0.89396
C          8.54440        1.07581       -0.78935
C          7.14727        1.06758       -0.74517
C          4.31530       -1.13950        0.13000
C          2.89340       -1.16250        0.15870
C          2.20650       -2.38970        0.28430
C          2.90420       -3.58740        0.39440
C          4.29210       -3.58320        0.39180
C          4.99250       -2.38330        0.26690
H          1.06340        2.47960       -0.10000
H          2.25150        4.59980       -0.34430
H          4.71490        4.64570       -0.46070
H          6.00000        2.61570       -0.32520
H          6.68857       -1.67638        1.21371
H          9.12899       -1.66263        1.15362
H         11.25004       -0.40542        0.78093
H          9.00781        1.86078       -1.35981
H          6.59965        1.83869       -1.27318
H          1.12380       -2.42680        0.30340
H          2.36600       -4.52160        0.49240
H          4.83250       -4.51620        0.49120
H          6.06610       -2.46280        0.29290
38

O          0.95670        0.02500        0.10390
C          2.17890        0.03770        0.07450
C          2.86380        1.25240       -0.04320
C          2.14630        2.46500       -0.13320
C          2.81300        3.67710       -0.27410
C          4.19970        3.70150       -0.33780
C          4.92990        2.51630       -0.24890
C          4.28560        1.25900       -0.08240
N          4.99520        0.06680        0.00660
C          6.45240        0.07970       -0.02590
C          7.17276        1.18337        0.46171
C          8.56920        1.19061        0.43788
C          9.29098        0.09547       -0.06867
C         10.78313        0.18316       -0.04606
C         11.60871       -0.21765        0.93664
F         11.17515       -0.77696        2.09286
F         12.94779       -0.05019        0.77630
C          8.56796       -1.01083       -0.56136
C          7.17027       -1.01400       -0.54028
C          4.31530       -1.13950        0.13000
C          2.89340       -1.16250        0.15870
C          2.20650       -2.38970        0.28430
C          2.90420       -3.58740        0.39440
C          4.29210       -3.58320        0.39180
C          4.99250       -2.38330        0.26690
H          1.06340        2.47960       -0.10000
H          2.25150        4.59980       -0.34430
H          4.71490        4.64570       -0.46070
H          6.00000        2.61570       -0.32520
H          6.64803        2.03809        0.87002
H          9.08872        2.05871        0.82522
H         11.26000        0.62502       -0.91738
H          9.04967       -1.88185       -0.96834
H          6.64016       -1.87429       -0.93040
H          1.12380       -2.42680        0.30340
H          2.36600       -4.52160        0.49240
H          4.83250       -4.51620        0.49120
H          6.06610       -2.46280        0.29290
38

O          0.95670        0.02500        0.10390
C          2.17890        0.03770        0.07450
C          2.86380        1.25240       -0.04320
C          2.14630        2.46500       -0.13320
C          2.81300        3.67710       -0.27410
C          4.19970        3.70150       -0.33780
C          4.92990        2.51630       -0.24890
C          4.28560        1.25900       -0.08240
N          4.99520        0.06680        0.00660
C          6.45240        0.07970       -0.02590
C          7.17276        1.18337        0.46171
C          8.56920        1.19061        0.43788
C          9.29098        0.09547       -0.06867
C         10.78313        0.18316       -0.04606
C         11.65779       -0.83073        0.07614
F         11.28312       -2.12713        0.20509
F         12.98780       -0.55161        0.08040
C          8.56796       -1.01083       -0.56136
C          7.17027       -1.01400       -0.54028
C          4.31530       -1.13950        0.13000
C          2.89340       -1.16250        0.15870
C          2.20650       -2.38970        0.28430
C          2.90420       -3.58740        0.39440
C          4.29210       -3.58320        0.39180
C          4.99250       -2.38330        0.26690
H          1.06340        2.47960       -0.10000
H          2.25150        4.59980       -0.34430
H          4.71490        4.64570       -0.46070
H          6.00000        2.61570       -0.32520
H          6.64803        2.03809        0.87002
H          9.08872        2.05871        0.82522
H         11.21567        1.17681       -0.13220
H          9.04967       -1.88185       -0.96834
H          6.64016       -1.87429       -0.93040
H          1.12380       -2.42680        0.30340
H          2.36600       -4.52160        0.49240
H          4.83250       -4.51620        0.49120
H          6.06610       -2.46280        0.29290
38

O          0.95670        0.02500        0.10390
C          2.17890        0.03770        0.07450
C          2.86380        1.25240       -0.04320
C          2.14630        2.46500       -0.13320
C          2.81300        3.67710       -0.27410
C          4.19970        3.70150       -0.33780
C          4.92990        2.51630       -0.24890
C          4.28560        1.25900       -0.08240
N          4.99520        0.06680        0.00660
C          6.45240        0.07970       -0.02590
C          7.17276        1.18337        0.46171
C          8.56920        1.19061        0.43788
C          9.29098        0.09547       -0.06867
C         10.78313        0.18316       -0.04606
C         11.54719        0.85604        0.83223
F         11.04010        1.58118        1.85920
F         12.89794        0.82100        0.68688
C          8.56796       -1.01083       -0.56136
C          7.17027       -1.01400       -0.54028
C          4.31530       -1.13950        0.13000
C          2.89340       -1.16250        0.15870
C          2.20650       -2.38970        0.28430
C          2.90420       -3.58740        0.39440
C          4.29210       -3.58320        0.39180
C          4.99250       -2.38330        0.26690
H          1.06340        2.47960       -0.10000
H          2.25150        4.59980       -0.34430
H          4.71490        4.64570       -0.46070
H          6.00000        2.61570       -0.32520
H          6.64803        2.03809        0.87002
H          9.08872        2.05871        0.82522
H         11.31601       -0.35079       -0.82886
H          9.04967       -1.88185       -0.96834
H          6.64016       -1.87429       -0.93040
H          1.12380       -2.42680        0.30340
H          2.36600       -4.52160        0.49240
H          4.83250       -4.51620        0.49120
H          6.06610       -2.46280        0.29290
38

O          0.95670        0.02500        0.10390
C          2.17890        0.03770        0.07450
C          2.86380        1.25240       -0.04320
C          2.14630        2.46500       -0.13320
C          2.81300        3.67710       -0.27410
C          4.19970        3.70150       -0.33780
C          4.92990        2.51630       -0.24890
C          4.28560        1.25900       -0.08240
N          4.99520        0.06680        0.00660
C          6.45240        0.07970       -0.02590
C          7.17276        1.18337        0.46171
C          8.56920        1.19061        0.43788
C          9.29098        0.09547       -0.06867
C         10.78313        0.18316       -0.04606
C         11.53327        1.20215        0.40880
F         11.00964        2.33978        0.92770
F         12.88677        1.10015        0.34165
C          8.56796       -1.01083       -0.56136
C          7.17027       -1.01400       -0.54028
C          4.31530       -1.13950        0.13000
C          2.89340       -1.16250        0.15870
C          2.20650       -2.38970        0.28430
C          2.90420       -3.58740        0.39440
C          4.29210       -3.58320        0.39180
C          4.99250       -2.38330        0.26690
H          1.06340        2.47960       -0.10000
H          2.25150        4.59980       -0.34430
H          4.71490        4.64570       -0.46070
H          6.00000        2.61570       -0.32520
H          6.64803        2.03809        0.87002
H          9.08872        2.05871        0.82522
H         11.32883       -0.66763       -0.44632
H          9.04967       -1.88185       -0.96834
H          6.64016       -1.87429       -0.93040
H          1.12380       -2.42680        0.30340
H          2.36600       -4.52160        0.49240
H          4.83250       -4.51620        0.49120
H          6.06610       -2.46280        0.29290
38

O          0.95670        0.02500        0.10390
C          2.17890        0.03770        0.07450
C          2.86380        1.25240       -0.04320
C          2.14630        2.46500       -0.13320
C          2.81300        3.67710       -0.27410
C          4.19970        3.70150       -0.33780
C          4.92990        2.51630       -0.24890
C          4.28560        1.25900       -0.08240
N          4.99520        0.06680        0.00660
C          6.45240        0.07970       -0.02590
C          7.19553       -0.89866        0.65626
C          8.59162       -0.89007        0.61703
C          9.29014        0.09172       -0.10756
C         10.78328        0.01929       -0.10428
C         11.55425       -0.88856        0.51971
F         11.05476       -1.90348        1.26677
F         12.90499       -0.78758        0.40933
C          8.54440        1.07581       -0.78935
C          7.14727        1.06758       -0.74517
C          4.31530       -1.13950        0.13000
C          2.89340       -1.16250        0.15870
C          2.20650       -2.38970        0.28430
C          2.90420       -3.58740        0.39440
C          4.29210       -3.58320        0.39180
C          4.99250       -2.38330        0.26690
H          1.06340        2.47960       -0.10000
H          2.25150        4.59980       -0.34430
H          4.71490        4.64570       -0.46070
H          6.00000        2.61570       -0.32520
H          6.68857       -1.67638        1.21371
H          9.12899       -1.66263        1.15362
H         11.31111        0.78795       -0.66322
H          9.00781        1.86078       -1.35981
H          6.59965        1.83869       -1.27318
H          1.12380       -2.42680        0.30340
H          2.36600       -4.52160        0.49240
H          4.83250       -4.51620        0.49120
H          6.06610       -2.46280        0.29290
38

O          0.95670        0.02500        0.10390
C          2.17890        0.03770        0.07450
C          2.86380        1.25240       -0.04320
C          2.14630        2.46500       -0.13320
C          2.81300        3.67710       -0.27410
C          4.19970        3.70150       -0.33780
C          4.92990        2.51630       -0.24890
C          4.28560        1.25900       -0.08240
N          4.99520        0.06680        0.00660
C          6.45240        0.07970       -0.02590
C          7.19553       -0.89866        0.65626
C          8.59162       -0.89007        0.61703
C          9.29014        0.09172       -0.10756
C         10.78328        0.01929       -0.10428
C         11.54597       -1.08234        0.00819
F         11.03648       -2.33120        0.14391
F         12.89816       -0.94710       -0.00509
C          8.54440        1.07581       -0.78935
C          7.14727        1.06758       -0.74517
C          4.31530       -1.13950        0.13000
C          2.89340       -1.16250        0.15870
C          2.20650       -2.38970        0.28430
C          2.90420       -3.58740        0.39440
C          4.29210       -3.58320        0.39180
C          4.99250       -2.38330        0.26690
H          1.06340        2.47960       -0.10000
H          2.25150        4.59980       -0.34430
H          4.71490        4.64570       -0.46070
H          6.00000        2.61570       -0.32520
H          6.68857       -1.67638        1.21371
H          9.12899       -1.66263        1.15362
H         11.31848        0.96095       -0.19749
H          9.00781        1.86078       -1.35981
H          6.59965        1.83869       -1.27318
H          1.12380       -2.42680        0.30340
H          2.36600       -4.52160        0.49240
H          4.83250       -4.51620        0.49120
H          6.06610       -2.46280        0.29290
