 xtb: 6.5.0 (unknown)
          08112218553D

 20  0  0     0  0            999 V2000
    1.5725   -3.0680   -0.0419 C   0  0  0  0  0  0  0  0  0  0  0  0
    1.2178   -1.8983   -0.5549 C   0  0  0  0  0  0  0  0  0  0  0  0
   -0.0321   -1.2009   -0.2603 C   0  0  0  0  0  0  0  0  0  0  0  0
   -1.2010   -1.9246   -0.0257 C   0  0  0  0  0  0  0  0  0  0  0  0
   -2.4156   -1.3001    0.1713 C   0  0  0  0  0  0  0  0  0  0  0  0
   -2.4816    0.0817    0.1196 C   0  0  0  0  0  0  0  0  0  0  0  0
   -3.6599    0.7022    0.2902 F   0  0  0  0  0  0  0  0  0  0  0  0
   -1.3334    0.8223   -0.1113 C   0  0  0  0  0  0  0  0  0  0  0  0
   -1.4030    2.1651   -0.1513 F   0  0  0  0  0  0  0  0  0  0  0  0
   -0.0952    0.2029   -0.2844 C   0  0  0  0  0  0  0  0  0  0  0  0
    1.0649    1.0709   -0.4816 C   0  0  0  0  0  0  0  0  0  0  0  0
    2.2508    0.9192    0.0848 C   0  0  0  0  0  0  0  0  0  0  0  0
    2.6168   -0.0289    0.9352 F   0  0  0  0  0  0  0  0  0  0  0  0
    3.2693    1.7475   -0.1124 F   0  0  0  0  0  0  0  0  0  0  0  0
    2.5011   -3.5397   -0.3106 H   0  0  0  0  0  0  0  0  0  0  0  0
    0.9678   -3.5823    0.6854 H   0  0  0  0  0  0  0  0  0  0  0  0
    1.8778   -1.3947   -1.2496 H   0  0  0  0  0  0  0  0  0  0  0  0
   -1.1549   -3.0018   -0.0225 H   0  0  0  0  0  0  0  0  0  0  0  0
   -3.3173   -1.8629    0.3510 H   0  0  0  0  0  0  0  0  0  0  0  0
    0.9230    1.9567   -1.0837 H   0  0  0  0  0  0  0  0  0  0  0  0
M  END
