
 OpenBabel02012213453D

 22 22  0  0  0  0  0  0  0  0999 V2000
    1.1910    0.4375    0.6161 C   0  0  0  0  0  0  0  0  0  0  0  0
    2.3283   -0.0153   -0.0204 O   0  0  0  0  0  0  0  0  0  0  0  0
    3.0676    0.6886   -0.9169 C   0  0  0  0  0  0  0  0  0  0  0  0
    2.7233    1.9930   -1.3258 C   0  0  0  0  0  0  0  0  0  0  0  0
    3.5217    2.6821   -2.2517 C   0  0  0  0  0  0  0  0  0  0  0  0
    3.1616    4.0712   -2.6904 C   0  0  0  0  0  0  0  0  0  0  0  0
    4.6687    2.0664   -2.7710 C   0  0  0  0  0  0  0  0  0  0  0  0
    5.0201    0.7679   -2.3723 C   0  0  0  0  0  0  0  0  0  0  0  0
    6.2472    0.1016   -2.9215 C   0  0  0  0  0  0  0  0  0  0  0  0
    4.2152    0.0872   -1.4473 C   0  0  0  0  0  0  0  0  0  0  0  0
    0.8113   -0.3573    1.2903 H   0  0  0  0  0  0  0  0  0  0  0  0
    0.4023    0.6773   -0.1285 H   0  0  0  0  0  0  0  0  0  0  0  0
    1.4263    1.3360    1.2258 H   0  0  0  0  0  0  0  0  0  0  0  0
    1.8405    2.4765   -0.9289 H   0  0  0  0  0  0  0  0  0  0  0  0
    2.2309    4.4268   -2.1990 H   0  0  0  0  0  0  0  0  0  0  0  0
    3.0057    4.0869   -3.7894 H   0  0  0  0  0  0  0  0  0  0  0  0
    3.9845    4.7694   -2.4292 H   0  0  0  0  0  0  0  0  0  0  0  0
    5.2852    2.5998   -3.4849 H   0  0  0  0  0  0  0  0  0  0  0  0
    6.7840    0.7603   -3.6371 H   0  0  0  0  0  0  0  0  0  0  0  0
    5.9607   -0.8316   -3.4503 H   0  0  0  0  0  0  0  0  0  0  0  0
    6.9388   -0.1496   -2.0900 H   0  0  0  0  0  0  0  0  0  0  0  0
    4.4831   -0.9155   -1.1357 H   0  0  0  0  0  0  0  0  0  0  0  0
  1  2  1  0  0  0  0
  1 11  1  0  0  0  0
  1 12  1  0  0  0  0
  1 13  1  0  0  0  0
  2  3  1  0  0  0  0
  3  4  1  0  0  0  0
  3 10  2  0  0  0  0
  4  5  2  0  0  0  0
  4 14  1  0  0  0  0
  5  6  1  0  0  0  0
  5  7  1  0  0  0  0
  6 15  1  0  0  0  0
  6 16  1  0  0  0  0
  6 17  1  0  0  0  0
  7  8  2  0  0  0  0
  7 18  1  0  0  0  0
  8  9  1  0  0  0  0
  8 10  1  0  0  0  0
  9 19  1  0  0  0  0
  9 20  1  0  0  0  0
  9 21  1  0  0  0  0
 10 22  1  0  0  0  0
M  END
