
 OpenBabel02012213453D

 22 22  0  0  0  0  0  0  0  0999 V2000
    1.2266    0.4954    0.5793 C   0  0  0  0  0  0  0  0  0  0  0  0
    2.3567   -0.1076   -0.0392 O   0  0  0  0  0  0  0  0  0  0  0  0
    3.0517    0.6666   -0.9299 C   0  0  0  0  0  0  0  0  0  0  0  0
    2.7044    1.9576   -1.3312 C   0  0  0  0  0  0  0  0  0  0  0  0
    3.5028    2.6591   -2.2450 C   0  0  0  0  0  0  0  0  0  0  0  0
    3.1413    4.0539   -2.6641 C   0  0  0  0  0  0  0  0  0  0  0  0
    4.6549    2.0499   -2.7610 C   0  0  0  0  0  0  0  0  0  0  0  0
    5.0122    0.7547   -2.3713 C   0  0  0  0  0  0  0  0  0  0  0  0
    6.2474    0.0979   -2.9122 C   0  0  0  0  0  0  0  0  0  0  0  0
    4.2002    0.0714   -1.4564 C   0  0  0  0  0  0  0  0  0  0  0  0
    0.8031   -0.2261    1.2837 H   0  0  0  0  0  0  0  0  0  0  0  0
    0.4541    0.7322   -0.1598 H   0  0  0  0  0  0  0  0  0  0  0  0
    1.5155    1.3857    1.1484 H   0  0  0  0  0  0  0  0  0  0  0  0
    1.8153    2.4438   -0.9447 H   0  0  0  0  0  0  0  0  0  0  0  0
    2.2121    4.3870   -2.1893 H   0  0  0  0  0  0  0  0  0  0  0  0
    2.9981    4.0991   -3.7479 H   0  0  0  0  0  0  0  0  0  0  0  0
    3.9339    4.7499   -2.3727 H   0  0  0  0  0  0  0  0  0  0  0  0
    5.2768    2.5939   -3.4681 H   0  0  0  0  0  0  0  0  0  0  0  0
    6.7839    0.7574   -3.6016 H   0  0  0  0  0  0  0  0  0  0  0  0
    5.9835   -0.8144   -3.4572 H   0  0  0  0  0  0  0  0  0  0  0  0
    6.9286   -0.1554   -2.0936 H   0  0  0  0  0  0  0  0  0  0  0  0
    4.4654   -0.9368   -1.1419 H   0  0  0  0  0  0  0  0  0  0  0  0
  1  2  1  0  0  0  0
  1 11  1  0  0  0  0
  1 12  1  0  0  0  0
  1 13  1  0  0  0  0
  2  3  1  0  0  0  0
  3  4  1  0  0  0  0
  3 10  2  0  0  0  0
  4  5  2  0  0  0  0
  4 14  1  0  0  0  0
  5  6  1  0  0  0  0
  5  7  1  0  0  0  0
  6 15  1  0  0  0  0
  6 16  1  0  0  0  0
  6 17  1  0  0  0  0
  7  8  2  0  0  0  0
  7 18  1  0  0  0  0
  8  9  1  0  0  0  0
  8 10  1  0  0  0  0
  9 19  1  0  0  0  0
  9 20  1  0  0  0  0
  9 21  1  0  0  0  0
 10 22  1  0  0  0  0
M  END
