
  xtb     02012213453D
 xtb: 6.4.1 (23d549d)
 22 22  0     0  0            999 V2000
    2.2891   -1.3291    0.0936 c   0  0  0  0  0  0  0  0  0  0  0  0
    2.0658    0.0110   -0.2659 o   0  0  0  0  0  0  0  0  0  0  0  0
    2.9694    0.6236   -1.0870 c   0  0  0  0  0  0  0  0  0  0  0  0
    2.6788    1.9476   -1.4193 c   0  0  0  0  0  0  0  0  0  0  0  0
    3.5191    2.6692   -2.2440 c   0  0  0  0  0  0  0  0  0  0  0  0
    3.2121    4.0911   -2.6060 c   0  0  0  0  0  0  0  0  0  0  0  0
    4.6653    2.0563   -2.7440 c   0  0  0  0  0  0  0  0  0  0  0  0
    4.9684    0.7457   -2.4242 c   0  0  0  0  0  0  0  0  0  0  0  0
    6.2055    0.0837   -2.9546 c   0  0  0  0  0  0  0  0  0  0  0  0
    4.1154    0.0279   -1.5901 c   0  0  0  0  0  0  0  0  0  0  0  0
    1.4426   -1.6138    0.7169 h   0  0  0  0  0  0  0  0  0  0  0  0
    3.2140   -1.4433    0.6681 h   0  0  0  0  0  0  0  0  0  0  0  0
    2.3260   -1.9820   -0.7853 h   0  0  0  0  0  0  0  0  0  0  0  0
    1.7812    2.3880   -1.0139 h   0  0  0  0  0  0  0  0  0  0  0  0
    2.3079    4.4326   -2.1094 h   0  0  0  0  0  0  0  0  0  0  0  0
    3.0749    4.1858   -3.6826 h   0  0  0  0  0  0  0  0  0  0  0  0
    4.0365    4.7421   -2.3179 h   0  0  0  0  0  0  0  0  0  0  0  0
    5.3251    2.6165   -3.3910 h   0  0  0  0  0  0  0  0  0  0  0  0
    6.7286    0.7362   -3.6487 h   0  0  0  0  0  0  0  0  0  0  0  0
    5.9527   -0.8422   -3.4695 h   0  0  0  0  0  0  0  0  0  0  0  0
    6.8819   -0.1644   -2.1369 h   0  0  0  0  0  0  0  0  0  0  0  0
    4.3677   -0.9931   -1.3487 h   0  0  0  0  0  0  0  0  0  0  0  0
  1  2  1  0  0  0  0
  2  3  1  0  0  0  0
  3  4  4  0  0  0  0
  4  5  4  0  0  0  0
  5  6  1  0  0  0  0
  5  7  4  0  0  0  0
  7  8  4  0  0  0  0
  8  9  1  0  0  0  0
  3 10  4  0  0  0  0
  8 10  4  0  0  0  0
  1 11  1  0  0  0  0
  1 12  1  0  0  0  0
  1 13  1  0  0  0  0
  4 14  1  0  0  0  0
  6 15  1  0  0  0  0
  6 16  1  0  0  0  0
  6 17  1  0  0  0  0
  7 18  1  0  0  0  0
  9 19  1  0  0  0  0
  9 20  1  0  0  0  0
  9 21  1  0  0  0  0
 10 22  1  0  0  0  0
M  END
