
 OpenBabel02012213413D

 36 39  0  0  0  0  0  0  0  0999 V2000
    2.5266    0.0965   -0.0958 C   0  0  0  0  0  0  0  0  0  0  0  0
    1.0288    0.0374   -0.0785 C   0  0  0  0  0  0  0  0  0  0  0  0
    0.3706   -1.0263    0.5245 C   0  0  0  0  0  0  0  0  0  0  0  0
   -1.0304   -1.1173    0.4932 C   0  0  0  0  0  0  0  0  0  0  0  0
   -1.8480   -0.1364   -0.0822 C   0  0  0  0  0  0  0  0  0  0  0  0
   -3.3053   -0.1872   -0.0991 N   0  0  0  0  0  0  0  0  0  0  0  0
   -4.1378   -0.6806    0.9882 C   0  0  0  0  0  0  0  0  0  0  0  0
   -5.3965   -0.0790    1.2032 C   0  0  0  0  0  0  0  0  0  0  0  0
   -5.8709    0.9542    0.4267 O   0  0  0  0  0  0  0  0  0  0  0  0
   -5.3142    1.0564   -0.8207 C   0  0  0  0  0  0  0  0  0  0  0  0
   -4.0575    0.5082   -1.1289 C   0  0  0  0  0  0  0  0  0  0  0  0
   -3.6208    0.6135   -2.4601 C   0  0  0  0  0  0  0  0  0  0  0  0
   -4.3795    1.2946   -3.4212 C   0  0  0  0  0  0  0  0  0  0  0  0
   -5.6031    1.8638   -3.0793 C   0  0  0  0  0  0  0  0  0  0  0  0
   -6.0758    1.7437   -1.7746 C   0  0  0  0  0  0  0  0  0  0  0  0
   -6.2769   -0.4995    2.2131 C   0  0  0  0  0  0  0  0  0  0  0  0
   -5.9349   -1.5652    3.0321 C   0  0  0  0  0  0  0  0  0  0  0  0
   -4.7202   -2.2027    2.8310 C   0  0  0  0  0  0  0  0  0  0  0  0
   -3.8462   -1.7711    1.8201 C   0  0  0  0  0  0  0  0  0  0  0  0
   -1.1493    0.9492   -0.6617 C   0  0  0  0  0  0  0  0  0  0  0  0
    0.2568    1.0204   -0.6922 C   0  0  0  0  0  0  0  0  0  0  0  0
    2.9633   -0.6773    0.5446 H   0  0  0  0  0  0  0  0  0  0  0  0
    2.8759    1.0652    0.2755 H   0  0  0  0  0  0  0  0  0  0  0  0
    2.8971   -0.0580   -1.1133 H   0  0  0  0  0  0  0  0  0  0  0  0
    0.9336   -1.8177    1.0149 H   0  0  0  0  0  0  0  0  0  0  0  0
   -1.4162   -2.0309    0.9033 H   0  0  0  0  0  0  0  0  0  0  0  0
   -2.6861    0.1536   -2.7727 H   0  0  0  0  0  0  0  0  0  0  0  0
   -4.0181    1.3705   -4.4431 H   0  0  0  0  0  0  0  0  0  0  0  0
   -6.1969    2.3842   -3.8244 H   0  0  0  0  0  0  0  0  0  0  0  0
   -7.0398    2.1601   -1.5009 H   0  0  0  0  0  0  0  0  0  0  0  0
   -7.2370   -0.0092    2.3345 H   0  0  0  0  0  0  0  0  0  0  0  0
   -6.6170   -1.9129    3.8024 H   0  0  0  0  0  0  0  0  0  0  0  0
   -4.4492   -3.0608    3.4421 H   0  0  0  0  0  0  0  0  0  0  0  0
   -2.9795   -2.3931    1.6975 H   0  0  0  0  0  0  0  0  0  0  0  0
   -1.6886    1.7821   -1.1075 H   0  0  0  0  0  0  0  0  0  0  0  0
    0.7366    1.8576   -1.1948 H   0  0  0  0  0  0  0  0  0  0  0  0
  1  2  1  0  0  0  0
  1 22  1  0  0  0  0
  1 23  1  0  0  0  0
  1 24  1  0  0  0  0
  2  3  1  0  0  0  0
  2 21  2  0  0  0  0
  3  4  2  0  0  0  0
  3 25  1  0  0  0  0
  4  5  1  0  0  0  0
  4 26  1  0  0  0  0
  5  6  1  0  0  0  0
  5 20  2  0  0  0  0
  6  7  1  0  0  0  0
  6 11  1  0  0  0  0
  7  8  1  0  0  0  0
  7 19  2  0  0  0  0
  8  9  1  0  0  0  0
  8 16  2  0  0  0  0
  9 10  1  0  0  0  0
 10 11  1  0  0  0  0
 10 15  2  0  0  0  0
 11 12  2  0  0  0  0
 12 13  1  0  0  0  0
 12 27  1  0  0  0  0
 13 14  2  0  0  0  0
 13 28  1  0  0  0  0
 14 15  1  0  0  0  0
 14 29  1  0  0  0  0
 15 30  1  0  0  0  0
 16 17  1  0  0  0  0
 16 31  1  0  0  0  0
 17 18  2  0  0  0  0
 17 32  1  0  0  0  0
 18 19  1  0  0  0  0
 18 33  1  0  0  0  0
 19 34  1  0  0  0  0
 20 21  1  0  0  0  0
 20 35  1  0  0  0  0
 21 36  1  0  0  0  0
M  END
