
  xtb     02032211353D
 xtb: 6.4.1 (23d549d)
 34 35  0     0  0            999 V2000
    5.8772    0.4395   -0.1706 C   0  0  0  0  0  0  0  0  0  0  0  0
    5.0016   -0.4921    0.1877 C   0  0  0  0  0  0  0  0  0  0  0  0
    3.5490   -0.4054    0.1098 C   0  0  0  0  0  0  0  0  0  0  0  0
    2.7806   -1.4310    0.6651 C   0  0  0  0  0  0  0  0  0  0  0  0
    1.4030   -1.3792    0.6140 C   0  0  0  0  0  0  0  0  0  0  0  0
    0.7377   -0.3121    0.0218 C   0  0  0  0  0  0  0  0  0  0  0  0
   -0.7377   -0.3122   -0.0211 C   0  0  0  0  0  0  0  0  0  0  0  0
   -1.4029   -1.3793   -0.6134 C   0  0  0  0  0  0  0  0  0  0  0  0
   -2.7804   -1.4314   -0.6644 C   0  0  0  0  0  0  0  0  0  0  0  0
   -3.5490   -0.4059   -0.1091 C   0  0  0  0  0  0  0  0  0  0  0  0
   -5.0016   -0.4925   -0.1871 C   0  0  0  0  0  0  0  0  0  0  0  0
   -5.8768    0.4420    0.1644 C   0  0  0  0  0  0  0  0  0  0  0  0
   -2.8883    0.6517    0.5071 C   0  0  0  0  0  0  0  0  0  0  0  0
   -1.4993    0.7165    0.5629 C   0  0  0  0  0  0  0  0  0  0  0  0
   -0.8862    1.8044    1.1498 N   0  0  0  0  0  0  0  0  0  0  0  0
    1.4991    0.7169   -0.5619 C   0  0  0  0  0  0  0  0  0  0  0  0
    0.8858    1.8048   -1.1485 N   0  0  0  0  0  0  0  0  0  0  0  0
    2.8881    0.6523   -0.5062 C   0  0  0  0  0  0  0  0  0  0  0  0
    6.9373    0.2802   -0.0701 H   0  0  0  0  0  0  0  0  0  0  0  0
    5.5824    1.3944   -0.5708 H   0  0  0  0  0  0  0  0  0  0  0  0
    5.3713   -1.4254    0.5960 H   0  0  0  0  0  0  0  0  0  0  0  0
    3.2699   -2.2685    1.1407 H   0  0  0  0  0  0  0  0  0  0  0  0
    0.8164   -2.1747    1.0516 H   0  0  0  0  0  0  0  0  0  0  0  0
   -0.8161   -2.1748   -1.0510 H   0  0  0  0  0  0  0  0  0  0  0  0
   -3.2697   -2.2690   -1.1400 H   0  0  0  0  0  0  0  0  0  0  0  0
   -5.3716   -1.4280   -0.5902 H   0  0  0  0  0  0  0  0  0  0  0  0
   -5.5814    1.3993    0.5585 H   0  0  0  0  0  0  0  0  0  0  0  0
   -6.9369    0.2828    0.0644 H   0  0  0  0  0  0  0  0  0  0  0  0
   -3.4536    1.4463    0.9712 H   0  0  0  0  0  0  0  0  0  0  0  0
   -1.4411    2.3285    1.8059 H   0  0  0  0  0  0  0  0  0  0  0  0
    0.0804    1.6868    1.4063 H   0  0  0  0  0  0  0  0  0  0  0  0
   -0.0806    1.6871   -1.4053 H   0  0  0  0  0  0  0  0  0  0  0  0
    1.4408    2.3294   -1.8042 H   0  0  0  0  0  0  0  0  0  0  0  0
    3.4533    1.4473   -0.9697 H   0  0  0  0  0  0  0  0  0  0  0  0
  1  2  2  0  0  0  0
  2  3  1  0  0  0  0
  3  4  4  0  0  0  0
  4  5  4  0  0  0  0
  5  6  4  0  0  0  0
  6  7  1  0  0  0  0
  7  8  4  0  0  0  0
  8  9  4  0  0  0  0
  9 10  4  0  0  0  0
 10 11  1  0  0  0  0
 11 12  2  0  0  0  0
 10 13  4  0  0  0  0
  7 14  4  0  0  0  0
 13 14  4  0  0  0  0
 14 15  1  0  0  0  0
  6 16  4  0  0  0  0
 16 17  1  0  0  0  0
  3 18  4  0  0  0  0
 16 18  4  0  0  0  0
  1 19  1  0  0  0  0
  1 20  1  0  0  0  0
  2 21  1  0  0  0  0
  4 22  1  0  0  0  0
  5 23  1  0  0  0  0
  8 24  1  0  0  0  0
  9 25  1  0  0  0  0
 11 26  1  0  0  0  0
 12 27  1  0  0  0  0
 12 28  1  0  0  0  0
 13 29  1  0  0  0  0
 15 30  1  0  0  0  0
 15 31  1  0  0  0  0
 17 32  1  0  0  0  0
 17 33  1  0  0  0  0
 18 34  1  0  0  0  0
M  END
