
  xtb     02032211343D
 xtb: 6.4.1 (23d549d)
 20 20  0     0  0            999 V2000
   -3.9515    2.3922   -0.0435 C   0  0  0  0  0  0  0  0  0  0  0  0
   -2.6264    2.3715    0.0311 C   0  0  0  0  0  0  0  0  0  0  0  0
   -1.7741    1.1877    0.0192 C   0  0  0  0  0  0  0  0  0  0  0  0
   -2.2867   -0.1099    0.0104 C   0  0  0  0  0  0  0  0  0  0  0  0
   -1.4102   -1.1757   -0.0013 C   0  0  0  0  0  0  0  0  0  0  0  0
   -1.9168   -2.4257   -0.0087 F   0  0  0  0  0  0  0  0  0  0  0  0
   -0.0374   -1.0219   -0.0047 C   0  0  0  0  0  0  0  0  0  0  0  0
    0.4876    0.2708    0.0057 C   0  0  0  0  0  0  0  0  0  0  0  0
    1.9155    0.5489    0.0048 C   0  0  0  0  0  0  0  0  0  0  0  0
    2.9210   -0.3141   -0.0029 C   0  0  0  0  0  0  0  0  0  0  0  0
    2.8609   -1.6380   -0.0119 F   0  0  0  0  0  0  0  0  0  0  0  0
    4.1973    0.0605   -0.0026 F   0  0  0  0  0  0  0  0  0  0  0  0
   -0.3907    1.3538    0.0188 C   0  0  0  0  0  0  0  0  0  0  0  0
   -4.4959    3.3205   -0.0292 H   0  0  0  0  0  0  0  0  0  0  0  0
   -4.5472    1.4997   -0.1246 H   0  0  0  0  0  0  0  0  0  0  0  0
   -2.0897    3.3092    0.1029 H   0  0  0  0  0  0  0  0  0  0  0  0
   -3.3467   -0.3009    0.0166 H   0  0  0  0  0  0  0  0  0  0  0  0
    0.5883   -1.8977   -0.0139 H   0  0  0  0  0  0  0  0  0  0  0  0
    2.2043    1.5899    0.0116 H   0  0  0  0  0  0  0  0  0  0  0  0
    0.0146    2.3553    0.0270 H   0  0  0  0  0  0  0  0  0  0  0  0
  1  2  2  0  0  0  0
  2  3  1  0  0  0  0
  3  4  4  0  0  0  0
  4  5  4  0  0  0  0
  5  6  1  0  0  0  0
  5  7  4  0  0  0  0
  7  8  4  0  0  0  0
  8  9  1  0  0  0  0
  9 10  2  0  0  0  0
 10 11  1  0  0  0  0
 10 12  1  0  0  0  0
  3 13  4  0  0  0  0
  8 13  4  0  0  0  0
  1 14  1  0  0  0  0
  1 15  1  0  0  0  0
  2 16  1  0  0  0  0
  4 17  1  0  0  0  0
  7 18  1  0  0  0  0
  9 19  1  0  0  0  0
 13 20  1  0  0  0  0
M  END
