 xtb: 6.5.0 (unknown)
          08112218563D

 24  0  0     0  0            999 V2000
   -1.1465   -3.7972   -0.2954 C   0  0  0  0  0  0  0  0  0  0  0  0
   -1.2135   -2.5482    0.1467 C   0  0  0  0  0  0  0  0  0  0  0  0
   -0.1386   -1.5638    0.0296 C   0  0  0  0  0  0  0  0  0  0  0  0
    1.1905   -1.9644    0.1053 C   0  0  0  0  0  0  0  0  0  0  0  0
    2.2360   -1.0620    0.0489 C   0  0  0  0  0  0  0  0  0  0  0  0
    1.9643    0.2957   -0.0863 C   0  0  0  0  0  0  0  0  0  0  0  0
    2.9000    1.2787   -0.1557 O   0  0  0  0  0  0  0  0  0  0  0  0
    4.2591    0.9218   -0.0845 C   0  0  0  0  0  0  0  0  0  0  0  0
    0.6380    0.7163   -0.1663 C   0  0  0  0  0  0  0  0  0  0  0  0
   -0.4121   -0.1883   -0.1102 C   0  0  0  0  0  0  0  0  0  0  0  0
   -1.7931    0.2645   -0.2567 C   0  0  0  0  0  0  0  0  0  0  0  0
   -2.2750    1.4487    0.0835 C   0  0  0  0  0  0  0  0  0  0  0  0
   -1.6280    2.4552    0.6577 F   0  0  0  0  0  0  0  0  0  0  0  0
   -3.5487    1.7999   -0.0943 F   0  0  0  0  0  0  0  0  0  0  0  0
   -1.9638   -4.4858   -0.1665 H   0  0  0  0  0  0  0  0  0  0  0  0
   -0.2832   -4.1753   -0.8167 H   0  0  0  0  0  0  0  0  0  0  0  0
   -2.1137   -2.2094    0.6428 H   0  0  0  0  0  0  0  0  0  0  0  0
    1.4136   -3.0125    0.2362 H   0  0  0  0  0  0  0  0  0  0  0  0
    3.2488   -1.4259    0.1176 H   0  0  0  0  0  0  0  0  0  0  0  0
    4.8128    1.8562   -0.1602 H   0  0  0  0  0  0  0  0  0  0  0  0
    4.5462    0.2639   -0.9112 H   0  0  0  0  0  0  0  0  0  0  0  0
    4.4985    0.4367    0.8673 H   0  0  0  0  0  0  0  0  0  0  0  0
    0.4568    1.7709   -0.2923 H   0  0  0  0  0  0  0  0  0  0  0  0
   -2.5033   -0.4244   -0.6881 H   0  0  0  0  0  0  0  0  0  0  0  0
M  END
