
  xtb     02032211353D
 xtb: 6.4.1 (23d549d)
 31 32  0     0  0            999 V2000
   -2.5328    3.6814    0.1549 C   0  0  0  0  0  0  0  0  0  0  0  0
   -1.4695    2.8874    0.1661 C   0  0  0  0  0  0  0  0  0  0  0  0
   -1.4699    1.4278    0.1591 C   0  0  0  0  0  0  0  0  0  0  0  0
   -2.6229    0.6753   -0.0440 C   0  0  0  0  0  0  0  0  0  0  0  0
   -2.5904   -0.7164   -0.0256 C   0  0  0  0  0  0  0  0  0  0  0  0
   -3.7806   -1.5366   -0.2293 C   0  0  0  0  0  0  0  0  0  0  0  0
   -4.9685   -1.1187   -0.6480 C   0  0  0  0  0  0  0  0  0  0  0  0
   -1.3722   -1.3572    0.1937 C   0  0  0  0  0  0  0  0  0  0  0  0
   -0.2102   -0.6200    0.3767 C   0  0  0  0  0  0  0  0  0  0  0  0
    0.9377   -1.3218    0.6435 O   0  0  0  0  0  0  0  0  0  0  0  0
    2.1511   -0.8498    0.2175 C   0  0  0  0  0  0  0  0  0  0  0  0
    3.2610   -1.1676    0.9945 C   0  0  0  0  0  0  0  0  0  0  0  0
    4.5223   -0.7769    0.5878 C   0  0  0  0  0  0  0  0  0  0  0  0
    4.6889   -0.0675   -0.5902 C   0  0  0  0  0  0  0  0  0  0  0  0
    3.5852    0.2373   -1.3682 C   0  0  0  0  0  0  0  0  0  0  0  0
    2.3182   -0.1525   -0.9745 C   0  0  0  0  0  0  0  0  0  0  0  0
   -0.2593    0.7669    0.3669 C   0  0  0  0  0  0  0  0  0  0  0  0
   -2.4302    4.7530    0.1655 H   0  0  0  0  0  0  0  0  0  0  0  0
   -3.5417    3.3065    0.1424 H   0  0  0  0  0  0  0  0  0  0  0  0
   -0.4833    3.3348    0.1963 H   0  0  0  0  0  0  0  0  0  0  0  0
   -3.5596    1.1796   -0.2114 H   0  0  0  0  0  0  0  0  0  0  0  0
   -3.6388   -2.5902   -0.0221 H   0  0  0  0  0  0  0  0  0  0  0  0
   -5.1733   -0.0901   -0.8907 H   0  0  0  0  0  0  0  0  0  0  0  0
   -5.7900   -1.8031   -0.7732 H   0  0  0  0  0  0  0  0  0  0  0  0
   -1.3121   -2.4346    0.2189 H   0  0  0  0  0  0  0  0  0  0  0  0
    3.1138   -1.7221    1.9082 H   0  0  0  0  0  0  0  0  0  0  0  0
    5.3791   -1.0246    1.1966 H   0  0  0  0  0  0  0  0  0  0  0  0
    5.6746    0.2414   -0.9033 H   0  0  0  0  0  0  0  0  0  0  0  0
    3.7082    0.7788   -2.2946 H   0  0  0  0  0  0  0  0  0  0  0  0
    1.4599    0.0728   -1.5911 H   0  0  0  0  0  0  0  0  0  0  0  0
    0.6433    1.3363    0.5390 H   0  0  0  0  0  0  0  0  0  0  0  0
  1  2  2  0  0  0  0
  2  3  1  0  0  0  0
  3  4  4  0  0  0  0
  4  5  4  0  0  0  0
  5  6  1  0  0  0  0
  6  7  2  0  0  0  0
  5  8  4  0  0  0  0
  8  9  4  0  0  0  0
  9 10  1  0  0  0  0
 10 11  1  0  0  0  0
 11 12  4  0  0  0  0
 12 13  4  0  0  0  0
 13 14  4  0  0  0  0
 14 15  4  0  0  0  0
 11 16  4  0  0  0  0
 15 16  4  0  0  0  0
  3 17  4  0  0  0  0
  9 17  4  0  0  0  0
  1 18  1  0  0  0  0
  1 19  1  0  0  0  0
  2 20  1  0  0  0  0
  4 21  1  0  0  0  0
  6 22  1  0  0  0  0
  7 23  1  0  0  0  0
  7 24  1  0  0  0  0
  8 25  1  0  0  0  0
 12 26  1  0  0  0  0
 13 27  1  0  0  0  0
 14 28  1  0  0  0  0
 15 29  1  0  0  0  0
 16 30  1  0  0  0  0
 17 31  1  0  0  0  0
M  END
