17

C          1.29754       -0.45611        0.61659
C          2.38000        0.01740       -0.01010
C          3.04190       -0.68300       -1.12940
C          2.78170       -0.55050       -2.49290
C          3.59130       -1.36640       -3.29330
C          4.48900       -2.14150       -2.56000
C          5.48080       -3.10720       -3.07510
C          6.73628       -2.77342       -3.39250
S          4.27370       -1.80900       -0.92600
H          0.85963        0.10833        1.43366
H          0.83494       -1.39529        0.33640
H          2.79566        0.96475        0.31994
H          2.03430        0.10950       -2.91050
H          3.51210       -1.37970       -4.37130
H          5.17219       -4.14039       -3.20308
H          7.10624       -1.76012       -3.28891
H          7.41565       -3.53220       -3.76728
17

C          2.81130        1.18174        0.48687
C          2.38000        0.01740       -0.01010
C          3.04190       -0.68300       -1.12940
C          2.78170       -0.55050       -2.49290
C          3.59130       -1.36640       -3.29330
C          4.48900       -2.14150       -2.56000
C          5.48080       -3.10720       -3.07510
C          5.21713       -4.40545       -3.25783
S          4.27370       -1.80900       -0.92600
H          2.27795        1.64495        1.31085
H          3.68465        1.68783        0.09231
H          1.49761       -0.43758        0.42984
H          2.03430        0.10950       -2.91050
H          3.51210       -1.37970       -4.37130
H          6.47480       -2.74239       -3.31591
H          4.24611       -4.83243       -3.03604
H          5.99196       -5.06267       -3.63924
17

C          2.23001       -0.51755        1.20646
C          2.38000        0.01740       -0.01010
C          3.04190       -0.68300       -1.12940
C          2.78170       -0.55050       -2.49290
C          3.59130       -1.36640       -3.29330
C          4.48900       -2.14150       -2.56000
C          5.48080       -3.10720       -3.07510
C          5.87441       -4.19002       -2.39617
S          4.27370       -1.80900       -0.92600
H          1.73423        0.05151        1.98641
H          2.59028       -1.51102        1.44684
H          1.99702        1.01821       -0.18579
H          2.03430        0.10950       -2.91050
H          3.51210       -1.37970       -4.37130
H          5.91216       -2.92601       -4.05500
H          5.48334       -4.42711       -1.41370
H          6.60860       -4.86000       -2.83189
17

C          2.81130        1.18174        0.48687
C          2.38000        0.01740       -0.01010
C          3.04190       -0.68300       -1.12940
C          2.78170       -0.55050       -2.49290
C          3.59130       -1.36640       -3.29330
C          4.48900       -2.14150       -2.56000
C          5.48080       -3.10720       -3.07510
C          6.73628       -2.77342       -3.39250
S          4.27370       -1.80900       -0.92600
H          2.27795        1.64495        1.31085
H          3.68465        1.68783        0.09231
H          1.49761       -0.43758        0.42984
H          2.03430        0.10950       -2.91050
H          3.51210       -1.37970       -4.37130
H          5.17219       -4.14039       -3.20308
H          7.10624       -1.76012       -3.28891
H          7.41565       -3.53220       -3.76728
17

C          1.29754       -0.45611        0.61659
C          2.38000        0.01740       -0.01010
C          3.04190       -0.68300       -1.12940
C          2.78170       -0.55050       -2.49290
C          3.59130       -1.36640       -3.29330
C          4.48900       -2.14150       -2.56000
C          5.48080       -3.10720       -3.07510
C          5.21713       -4.40545       -3.25783
S          4.27370       -1.80900       -0.92600
H          0.85963        0.10833        1.43366
H          0.83494       -1.39529        0.33640
H          2.79566        0.96475        0.31994
H          2.03430        0.10950       -2.91050
H          3.51210       -1.37970       -4.37130
H          6.47480       -2.74239       -3.31591
H          4.24611       -4.83243       -3.03604
H          5.99196       -5.06267       -3.63924
17

C          2.23001       -0.51755        1.20646
C          2.38000        0.01740       -0.01010
C          3.04190       -0.68300       -1.12940
C          2.78170       -0.55050       -2.49290
C          3.59130       -1.36640       -3.29330
C          4.48900       -2.14150       -2.56000
C          5.48080       -3.10720       -3.07510
C          6.64208       -3.36529       -2.46422
S          4.27370       -1.80900       -0.92600
H          1.73423        0.05151        1.98641
H          2.59028       -1.51102        1.44684
H          1.99702        1.01821       -0.18579
H          2.03430        0.10950       -2.91050
H          3.51210       -1.37970       -4.37130
H          5.25390       -3.63247       -3.99798
H          6.92866       -2.87456       -1.54148
H          7.32804       -4.08660       -2.89659
17

C          2.23001       -0.51755        1.20646
C          2.38000        0.01740       -0.01010
C          3.04190       -0.68300       -1.12940
C          2.78170       -0.55050       -2.49290
C          3.59130       -1.36640       -3.29330
C          4.48900       -2.14150       -2.56000
C          5.48080       -3.10720       -3.07510
C          5.64607       -3.36839       -4.37619
S          4.27370       -1.80900       -0.92600
H          1.73423        0.05151        1.98641
H          2.59028       -1.51102        1.44684
H          1.99702        1.01821       -0.18579
H          2.03430        0.10950       -2.91050
H          3.51210       -1.37970       -4.37130
H          6.10588       -3.63182       -2.35876
H          5.05396       -2.87989       -5.14114
H          6.39317       -4.09090       -4.68858
17

C          1.85871        1.24450       -0.11572
C          2.38000        0.01740       -0.01010
C          3.04190       -0.68300       -1.12940
C          2.78170       -0.55050       -2.49290
C          3.59130       -1.36640       -3.29330
C          4.48900       -2.14150       -2.56000
C          5.48080       -3.10720       -3.07510
C          5.21713       -4.40545       -3.25783
S          4.27370       -1.80900       -0.92600
H          1.38448        1.70300        0.74617
H          1.89145        1.80606       -1.04208
H          2.31348       -0.49220        0.94648
H          2.03430        0.10950       -2.91050
H          3.51210       -1.37970       -4.37130
H          6.47480       -2.74239       -3.31591
H          4.24611       -4.83243       -3.03604
H          5.99196       -5.06267       -3.63924
17

C          1.29754       -0.45611        0.61659
C          2.38000        0.01740       -0.01010
C          3.04190       -0.68300       -1.12940
C          2.78170       -0.55050       -2.49290
C          3.59130       -1.36640       -3.29330
C          4.48900       -2.14150       -2.56000
C          5.48080       -3.10720       -3.07510
C          6.06482       -2.99350       -4.27275
S          4.27370       -1.80900       -0.92600
H          0.85963        0.10833        1.43366
H          0.83494       -1.39529        0.33640
H          2.79566        0.96475        0.31994
H          2.03430        0.10950       -2.91050
H          3.51210       -1.37970       -4.37130
H          5.74696       -3.95281       -2.44804
H          5.84232       -2.17418       -4.94624
H          6.78571       -3.73924       -4.59205
17

C          1.10990        0.43432       -0.05155
C          2.38000        0.01740       -0.01010
C          3.04190       -0.68300       -1.12940
C          2.78170       -0.55050       -2.49290
C          3.59130       -1.36640       -3.29330
C          4.48900       -2.14150       -2.56000
C          5.48080       -3.10720       -3.07510
C          6.73628       -2.77342       -3.39250
S          4.27370       -1.80900       -0.92600
H          0.68288        0.94288        0.80692
H          0.48180        0.28094       -0.92134
H          2.95557        0.20149        0.89212
H          2.03430        0.10950       -2.91050
H          3.51210       -1.37970       -4.37130
H          5.17219       -4.14039       -3.20308
H          7.10624       -1.76012       -3.28891
H          7.41565       -3.53220       -3.76728
