
 OpenBabel02012213443D

 34 35  0  0  0  0  0  0  0  0999 V2000
    2.9959    2.6526   -2.9595 C   0  0  0  0  0  0  0  0  0  0  0  0
    2.7546    2.0018   -1.5908 C   0  0  0  0  0  0  0  0  0  0  0  0
    1.8945    2.9592   -0.7483 C   0  0  0  0  0  0  0  0  0  0  0  0
    1.9746    0.7794   -1.7068 O   0  0  0  0  0  0  0  0  0  0  0  0
    2.4800   -0.2740   -2.4012 C   0  0  0  0  0  0  0  0  0  0  0  0
    1.6602   -1.4173   -2.2997 N   0  0  0  0  0  0  0  0  0  0  0  0
    2.0448   -2.6614   -2.7968 C   0  0  0  0  0  0  0  0  0  0  0  0
    1.1675   -3.6216   -2.3631 C   0  0  0  0  0  0  0  0  0  0  0  0
    0.4057   -1.5854   -1.6959 C   0  0  0  0  0  0  0  0  0  0  0  0
    0.1478   -2.9636   -1.6370 C   0  0  0  0  0  0  0  0  0  0  0  0
   -0.9844   -3.4305   -0.9378 C   0  0  0  0  0  0  0  0  0  0  0  0
   -1.8673   -2.5213   -0.3395 C   0  0  0  0  0  0  0  0  0  0  0  0
   -2.9985   -3.0102    0.5176 C   0  0  0  0  0  0  0  0  0  0  0  0
   -1.6444   -1.1521   -0.4927 C   0  0  0  0  0  0  0  0  0  0  0  0
   -0.5179   -0.6639   -1.1684 C   0  0  0  0  0  0  0  0  0  0  0  0
    3.5445   -0.3331   -2.9979 O   0  0  0  0  0  0  0  0  0  0  0  0
    4.0722    1.7616   -0.8400 C   0  0  0  0  0  0  0  0  0  0  0  0
    2.0487    2.9597   -3.4164 H   0  0  0  0  0  0  0  0  0  0  0  0
    3.4760    1.9742   -3.6689 H   0  0  0  0  0  0  0  0  0  0  0  0
    3.6340    3.5386   -2.8679 H   0  0  0  0  0  0  0  0  0  0  0  0
    0.8866    3.0538   -1.1668 H   0  0  0  0  0  0  0  0  0  0  0  0
    2.3422    3.9586   -0.6911 H   0  0  0  0  0  0  0  0  0  0  0  0
    1.7725    2.5823    0.2736 H   0  0  0  0  0  0  0  0  0  0  0  0
    2.9603   -2.7500   -3.3684 H   0  0  0  0  0  0  0  0  0  0  0  0
    1.2512   -4.6846   -2.5460 H   0  0  0  0  0  0  0  0  0  0  0  0
   -1.1548   -4.5003   -0.8531 H   0  0  0  0  0  0  0  0  0  0  0  0
   -3.1917   -4.0763    0.3582 H   0  0  0  0  0  0  0  0  0  0  0  0
   -3.9215   -2.4668    0.2939 H   0  0  0  0  0  0  0  0  0  0  0  0
   -2.7442   -2.8654    1.5734 H   0  0  0  0  0  0  0  0  0  0  0  0
   -2.3443   -0.4387   -0.0609 H   0  0  0  0  0  0  0  0  0  0  0  0
   -0.3734    0.4077   -1.2593 H   0  0  0  0  0  0  0  0  0  0  0  0
    4.6203    2.6994   -0.6939 H   0  0  0  0  0  0  0  0  0  0  0  0
    4.7341    1.0733   -1.3721 H   0  0  0  0  0  0  0  0  0  0  0  0
    3.8841    1.3179    0.1444 H   0  0  0  0  0  0  0  0  0  0  0  0
  1  2  1  0  0  0  0
  1 18  1  0  0  0  0
  1 19  1  0  0  0  0
  1 20  1  0  0  0  0
  2  3  1  0  0  0  0
  2  4  1  0  0  0  0
  2 17  1  0  0  0  0
  3 21  1  0  0  0  0
  3 22  1  0  0  0  0
  3 23  1  0  0  0  0
  4  5  1  0  0  0  0
  5  6  1  0  0  0  0
  5 16  2  0  0  0  0
  6  7  1  0  0  0  0
  6  9  1  0  0  0  0
  7  8  2  0  0  0  0
  7 24  1  0  0  0  0
  8 10  1  0  0  0  0
  8 25  1  0  0  0  0
  9 10  1  0  0  0  0
  9 15  2  0  0  0  0
 10 11  2  0  0  0  0
 11 12  1  0  0  0  0
 11 26  1  0  0  0  0
 12 13  1  0  0  0  0
 12 14  2  0  0  0  0
 13 27  1  0  0  0  0
 13 28  1  0  0  0  0
 13 29  1  0  0  0  0
 14 15  1  0  0  0  0
 14 30  1  0  0  0  0
 15 31  1  0  0  0  0
 17 32  1  0  0  0  0
 17 33  1  0  0  0  0
 17 34  1  0  0  0  0
M  END
