
  xtb     02012213453D
 xtb: 6.4.1 (23d549d)
 34 35  0     0  0            999 V2000
    2.7623    2.5545   -2.5585 c   0  0  0  0  0  0  0  0  0  0  0  0
    2.2130    2.0946   -1.2093 c   0  0  0  0  0  0  0  0  0  0  0  0
    1.0427    2.9794   -0.7783 c   0  0  0  0  0  0  0  0  0  0  0  0
    1.6255    0.7718   -1.3237 o   0  0  0  0  0  0  0  0  0  0  0  0
    2.3636   -0.2663   -1.7022 c   0  0  0  0  0  0  0  0  0  0  0  0
    1.6237   -1.4382   -1.7068 n   0  0  0  0  0  0  0  0  0  0  0  0
    2.1778   -2.6428   -2.1188 c   0  0  0  0  0  0  0  0  0  0  0  0
    1.2752   -3.6400   -2.0067 c   0  0  0  0  0  0  0  0  0  0  0  0
    0.3128   -1.6855   -1.3147 c   0  0  0  0  0  0  0  0  0  0  0  0
    0.0697   -3.0651   -1.4910 c   0  0  0  0  0  0  0  0  0  0  0  0
   -1.1692   -3.6067   -1.1646 c   0  0  0  0  0  0  0  0  0  0  0  0
   -2.1570   -2.7792   -0.6652 c   0  0  0  0  0  0  0  0  0  0  0  0
   -3.5040   -3.3207   -0.2886 c   0  0  0  0  0  0  0  0  0  0  0  0
   -1.8959   -1.4142   -0.5015 c   0  0  0  0  0  0  0  0  0  0  0  0
   -0.6762   -0.8503   -0.8187 c   0  0  0  0  0  0  0  0  0  0  0  0
    3.5275   -0.2509   -2.0136 o   0  0  0  0  0  0  0  0  0  0  0  0
    3.3045    2.0864   -0.1404 c   0  0  0  0  0  0  0  0  0  0  0  0
    1.9850    2.4992   -3.3178 h   0  0  0  0  0  0  0  0  0  0  0  0
    3.5957    1.9274   -2.8623 h   0  0  0  0  0  0  0  0  0  0  0  0
    3.1050    3.5823   -2.4792 h   0  0  0  0  0  0  0  0  0  0  0  0
    0.2547    2.9463   -1.5265 h   0  0  0  0  0  0  0  0  0  0  0  0
    1.3777    4.0057   -0.6629 h   0  0  0  0  0  0  0  0  0  0  0  0
    0.6383    2.6313    0.1688 h   0  0  0  0  0  0  0  0  0  0  0  0
    3.1944   -2.6539   -2.4602 h   0  0  0  0  0  0  0  0  0  0  0  0
    1.4270   -4.6716   -2.2547 h   0  0  0  0  0  0  0  0  0  0  0  0
   -1.3494   -4.6632   -1.2995 h   0  0  0  0  0  0  0  0  0  0  0  0
   -3.5720   -4.3828   -0.5093 h   0  0  0  0  0  0  0  0  0  0  0  0
   -4.2904   -2.8003   -0.8336 h   0  0  0  0  0  0  0  0  0  0  0  0
   -3.6858   -3.1757    0.7759 h   0  0  0  0  0  0  0  0  0  0  0  0
   -2.6802   -0.7815   -0.1114 h   0  0  0  0  0  0  0  0  0  0  0  0
   -0.5055    0.2039   -0.6827 h   0  0  0  0  0  0  0  0  0  0  0  0
    3.6764    3.0959    0.0100 h   0  0  0  0  0  0  0  0  0  0  0  0
    4.1292    1.4495   -0.4482 h   0  0  0  0  0  0  0  0  0  0  0  0
    2.9036    1.7139    0.8002 h   0  0  0  0  0  0  0  0  0  0  0  0
  1  2  1  0  0  0  0
  2  3  1  0  0  0  0
  2  4  1  0  0  0  0
  4  5  1  0  0  0  0
  5  6  1  0  0  0  0
  6  7  1  0  0  0  0
  7  8  2  0  0  0  0
  6  9  1  0  0  0  0
  8 10  1  0  0  0  0
  9 10  4  0  0  0  0
 10 11  4  0  0  0  0
 11 12  4  0  0  0  0
 12 13  1  0  0  0  0
 12 14  4  0  0  0  0
  9 15  4  0  0  0  0
 14 15  4  0  0  0  0
  5 16  2  0  0  0  0
  2 17  1  0  0  0  0
  1 18  1  0  0  0  0
  1 19  1  0  0  0  0
  1 20  1  0  0  0  0
  3 21  1  0  0  0  0
  3 22  1  0  0  0  0
  3 23  1  0  0  0  0
  7 24  1  0  0  0  0
  8 25  1  0  0  0  0
 11 26  1  0  0  0  0
 13 27  1  0  0  0  0
 13 28  1  0  0  0  0
 13 29  1  0  0  0  0
 14 30  1  0  0  0  0
 15 31  1  0  0  0  0
 17 32  1  0  0  0  0
 17 33  1  0  0  0  0
 17 34  1  0  0  0  0
M  END
