
  xtb     02032211353D
 xtb: 6.4.1 (23d549d)
 26 26  0     0  0            999 V2000
   -4.0566    2.0545   -0.3664 C   0  0  0  0  0  0  0  0  0  0  0  0
   -3.4593    0.9883    0.1482 C   0  0  0  0  0  0  0  0  0  0  0  0
   -2.0262    0.7080    0.0409 C   0  0  0  0  0  0  0  0  0  0  0  0
   -1.1090    1.7582    0.0838 C   0  0  0  0  0  0  0  0  0  0  0  0
    0.2513    1.5206    0.0320 C   0  0  0  0  0  0  0  0  0  0  0  0
    0.6956    0.2158   -0.0622 C   0  0  0  0  0  0  0  0  0  0  0  0
    2.4559   -0.1148   -0.0810 S   0  0  0  0  0  0  0  0  0  0  0  0
    2.8728   -0.1889    1.6891 C   0  0  0  0  0  0  0  0  0  0  0  0
    2.6857   -1.4157   -0.6489 O   0  0  0  0  0  0  0  0  0  0  0  0
    3.1436    1.0100   -0.6544 O   0  0  0  0  0  0  0  0  0  0  0  0
   -0.1855   -0.8412   -0.1151 C   0  0  0  0  0  0  0  0  0  0  0  0
   -1.5600   -0.6170   -0.0669 C   0  0  0  0  0  0  0  0  0  0  0  0
   -2.4943   -1.7373   -0.1784 C   0  0  0  0  0  0  0  0  0  0  0  0
   -2.2543   -2.9650    0.2621 C   0  0  0  0  0  0  0  0  0  0  0  0
   -5.1142    2.2193   -0.2516 H   0  0  0  0  0  0  0  0  0  0  0  0
   -3.5187    2.7907   -0.9400 H   0  0  0  0  0  0  0  0  0  0  0  0
   -4.0425    0.2557    0.6906 H   0  0  0  0  0  0  0  0  0  0  0  0
   -1.4740    2.7694    0.1793 H   0  0  0  0  0  0  0  0  0  0  0  0
    0.9718    2.3229    0.0490 H   0  0  0  0  0  0  0  0  0  0  0  0
    2.3014   -0.9926    2.1345 H   0  0  0  0  0  0  0  0  0  0  0  0
    2.6252    0.7664    2.1328 H   0  0  0  0  0  0  0  0  0  0  0  0
    3.9347   -0.3840    1.7713 H   0  0  0  0  0  0  0  0  0  0  0  0
    0.2127   -1.8364   -0.2345 H   0  0  0  0  0  0  0  0  0  0  0  0
   -3.4366   -1.5160   -0.6615 H   0  0  0  0  0  0  0  0  0  0  0  0
   -1.3401   -3.2247    0.7686 H   0  0  0  0  0  0  0  0  0  0  0  0
   -2.9740   -3.7565    0.1430 H   0  0  0  0  0  0  0  0  0  0  0  0
  1  2  2  0  0  0  0
  2  3  1  0  0  0  0
  3  4  4  0  0  0  0
  4  5  4  0  0  0  0
  5  6  4  0  0  0  0
  6  7  1  0  0  0  0
  7  8  1  0  0  0  0
  7  9  2  0  0  0  0
  7 10  2  0  0  0  0
  6 11  4  0  0  0  0
  3 12  4  0  0  0  0
 11 12  4  0  0  0  0
 12 13  1  0  0  0  0
 13 14  2  0  0  0  0
  1 15  1  0  0  0  0
  1 16  1  0  0  0  0
  2 17  1  0  0  0  0
  4 18  1  0  0  0  0
  5 19  1  0  0  0  0
  8 20  1  0  0  0  0
  8 21  1  0  0  0  0
  8 22  1  0  0  0  0
 11 23  1  0  0  0  0
 13 24  1  0  0  0  0
 14 25  1  0  0  0  0
 14 26  1  0  0  0  0
M  END
