
  xtb     02032211363D
 xtb: 6.4.1 (23d549d)
 23 24  0     0  0            999 V2000
   -4.0557   -0.1765    0.1015 C   0  0  0  0  0  0  0  0  0  0  0  0
   -2.9491   -0.8932   -0.0504 C   0  0  0  0  0  0  0  0  0  0  0  0
   -1.5777   -0.3967   -0.0335 C   0  0  0  0  0  0  0  0  0  0  0  0
   -0.5155   -1.3354   -0.0212 C   0  0  0  0  0  0  0  0  0  0  0  0
    0.8043   -0.9506   -0.0004 C   0  0  0  0  0  0  0  0  0  0  0  0
    1.9449   -1.8534    0.0169 C   0  0  0  0  0  0  0  0  0  0  0  0
    1.8977   -3.1804    0.0268 C   0  0  0  0  0  0  0  0  0  0  0  0
    1.0768    0.4385    0.0014 C   0  0  0  0  0  0  0  0  0  0  0  0
    2.2321    1.0764    0.0145 N   0  0  0  0  0  0  0  0  0  0  0  0
    1.9279    2.3887    0.0037 C   0  0  0  0  0  0  0  0  0  0  0  0
    0.5689    2.5842   -0.0171 C   0  0  0  0  0  0  0  0  0  0  0  0
    0.0139    1.3415   -0.0178 N   0  0  0  0  0  0  0  0  0  0  0  0
   -1.2761    0.9425   -0.0347 C   0  0  0  0  0  0  0  0  0  0  0  0
   -5.0270   -0.6392    0.0759 H   0  0  0  0  0  0  0  0  0  0  0  0
   -4.0467    0.8878    0.2623 H   0  0  0  0  0  0  0  0  0  0  0  0
   -3.0334   -1.9633   -0.1917 H   0  0  0  0  0  0  0  0  0  0  0  0
   -0.7671   -2.3843   -0.0250 H   0  0  0  0  0  0  0  0  0  0  0  0
    2.8962   -1.3397    0.0229 H   0  0  0  0  0  0  0  0  0  0  0  0
    0.9734   -3.7335    0.0227 H   0  0  0  0  0  0  0  0  0  0  0  0
    2.7982   -3.7694    0.0401 H   0  0  0  0  0  0  0  0  0  0  0  0
    2.7030    3.1298    0.0110 H   0  0  0  0  0  0  0  0  0  0  0  0
   -0.0195    3.4783   -0.0301 H   0  0  0  0  0  0  0  0  0  0  0  0
   -2.0241    1.7193   -0.0579 H   0  0  0  0  0  0  0  0  0  0  0  0
  1  2  2  0  0  0  0
  2  3  1  0  0  0  0
  3  4  4  0  0  0  0
  4  5  2  0  0  0  0
  5  6  1  0  0  0  0
  6  7  2  0  0  0  0
  5  8  4  0  0  0  0
  8  9  4  0  0  0  0
  9 10  4  0  0  0  0
 10 11  2  0  0  0  0
  8 12  1  0  0  0  0
 11 12  1  0  0  0  0
  3 13  4  0  0  0  0
 12 13  4  0  0  0  0
  1 14  1  0  0  0  0
  1 15  1  0  0  0  0
  2 16  1  0  0  0  0
  4 17  1  0  0  0  0
  6 18  1  0  0  0  0
  7 19  1  0  0  0  0
  7 20  1  0  0  0  0
 10 21  1  0  0  0  0
 11 22  1  0  0  0  0
 13 23  1  0  0  0  0
M  END
