
  xtb     02032210533D
 xtb: 6.4.1 (23d549d)
 30 31  0     0  0            999 V2000
    2.6452    0.7188   -1.0608 c   0  0  0  0  0  0  0  0  0  0  0  0
    2.3152   -0.2191   -0.1805 c   0  0  0  0  0  0  0  0  0  0  0  0
    3.1776   -0.7984    0.8406 c   0  0  0  0  0  0  0  0  0  0  0  0
    4.4459   -0.2994    1.1428 c   0  0  0  0  0  0  0  0  0  0  0  0
    5.2261   -0.8864    2.1164 c   0  0  0  0  0  0  0  0  0  0  0  0
    4.7758   -2.0020    2.8213 c   0  0  0  0  0  0  0  0  0  0  0  0
    5.6085   -2.6373    3.8490 c   0  0  0  0  0  0  0  0  0  0  0  0
    6.3544   -1.8733    4.7459 c   0  0  0  0  0  0  0  0  0  0  0  0
    7.1244   -2.4729    5.7198 c   0  0  0  0  0  0  0  0  0  0  0  0
    7.1881   -3.8631    5.8312 c   0  0  0  0  0  0  0  0  0  0  0  0
    7.9812   -4.5461    6.8444 c   0  0  0  0  0  0  0  0  0  0  0  0
    8.6118   -3.9859    7.8701 c   0  0  0  0  0  0  0  0  0  0  0  0
    6.4526   -4.6243    4.9203 c   0  0  0  0  0  0  0  0  0  0  0  0
    5.6728   -4.0257    3.9535 c   0  0  0  0  0  0  0  0  0  0  0  0
    3.5084   -2.5013    2.5255 c   0  0  0  0  0  0  0  0  0  0  0  0
    2.7242   -1.9058    1.5605 c   0  0  0  0  0  0  0  0  0  0  0  0
    1.9345    1.0824   -1.7829 h   0  0  0  0  0  0  0  0  0  0  0  0
    3.6267    1.1600   -1.1042 h   0  0  0  0  0  0  0  0  0  0  0  0
    1.3121   -0.6288   -0.2049 h   0  0  0  0  0  0  0  0  0  0  0  0
    4.8239    0.5619    0.6136 h   0  0  0  0  0  0  0  0  0  0  0  0
    6.2103   -0.4906    2.3223 h   0  0  0  0  0  0  0  0  0  0  0  0
    6.3090   -0.7951    4.6898 h   0  0  0  0  0  0  0  0  0  0  0  0
    7.6882   -1.8538    6.4005 h   0  0  0  0  0  0  0  0  0  0  0  0
    8.0298   -5.6222    6.7251 h   0  0  0  0  0  0  0  0  0  0  0  0
    8.5950   -2.9254    8.0570 h   0  0  0  0  0  0  0  0  0  0  0  0
    9.1724   -4.5776    8.5733 h   0  0  0  0  0  0  0  0  0  0  0  0
    6.4934   -5.7033    4.9785 h   0  0  0  0  0  0  0  0  0  0  0  0
    5.1231   -4.6379    3.2532 h   0  0  0  0  0  0  0  0  0  0  0  0
    3.1288   -3.3496    3.0766 h   0  0  0  0  0  0  0  0  0  0  0  0
    1.7412   -2.3051    1.3523 h   0  0  0  0  0  0  0  0  0  0  0  0
  1  2  2  0  0  0  0
  2  3  1  0  0  0  0
  3  4  4  0  0  0  0
  4  5  4  0  0  0  0
  5  6  4  0  0  0  0
  6  7  1  0  0  0  0
  7  8  4  0  0  0  0
  8  9  4  0  0  0  0
  9 10  4  0  0  0  0
 10 11  1  0  0  0  0
 11 12  2  0  0  0  0
 10 13  4  0  0  0  0
  7 14  4  0  0  0  0
 13 14  4  0  0  0  0
  6 15  4  0  0  0  0
  3 16  4  0  0  0  0
 15 16  4  0  0  0  0
  1 17  1  0  0  0  0
  1 18  1  0  0  0  0
  2 19  1  0  0  0  0
  4 20  1  0  0  0  0
  5 21  1  0  0  0  0
  8 22  1  0  0  0  0
  9 23  1  0  0  0  0
 11 24  1  0  0  0  0
 12 25  1  0  0  0  0
 12 26  1  0  0  0  0
 13 27  1  0  0  0  0
 14 28  1  0  0  0  0
 15 29  1  0  0  0  0
 16 30  1  0  0  0  0
M  END
