
  xtb     02012214153D
 xtb: 6.4.1 (23d549d)
 21 21  0     0  0            999 V2000
    1.4849   -1.9947   -0.5775 c   0  0  0  0  0  0  0  0  0  0  0  0
    2.8516   -2.0187   -0.1970 o   0  0  0  0  0  0  0  0  0  0  0  0
    3.4115   -0.8127    0.0354 c   0  0  0  0  0  0  0  0  0  0  0  0
    2.8009    0.2231   -0.0648 o   0  0  0  0  0  0  0  0  0  0  0  0
    4.8173   -0.9219    0.4135 c   0  0  0  0  0  0  0  0  0  0  0  0
    5.6684    0.1827    0.7260 c   0  0  0  0  0  0  0  0  0  0  0  0
    6.8860   -0.3415    1.0157 c   0  0  0  0  0  0  0  0  0  0  0  0
    8.1742    0.2871    1.4069 c   0  0  0  0  0  0  0  0  0  0  0  0
    6.8408   -1.6961    0.9027 o   0  0  0  0  0  0  0  0  0  0  0  0
    5.5975   -2.0488    0.5406 c   0  0  0  0  0  0  0  0  0  0  0  0
    5.3031   -3.4909    0.3539 c   0  0  0  0  0  0  0  0  0  0  0  0
    1.1694   -3.0329   -0.6449 h   0  0  0  0  0  0  0  0  0  0  0  0
    1.3674   -1.4957   -1.5420 h   0  0  0  0  0  0  0  0  0  0  0  0
    0.8915   -1.4590    0.1666 h   0  0  0  0  0  0  0  0  0  0  0  0
    5.3778    1.2122    0.7237 h   0  0  0  0  0  0  0  0  0  0  0  0
    8.0391    1.3591    1.5106 h   0  0  0  0  0  0  0  0  0  0  0  0
    8.9368    0.0947    0.6529 h   0  0  0  0  0  0  0  0  0  0  0  0
    8.5255   -0.1244    2.3522 h   0  0  0  0  0  0  0  0  0  0  0  0
    6.2141   -4.0657    0.4999 h   0  0  0  0  0  0  0  0  0  0  0  0
    4.9119   -3.6700   -0.6453 h   0  0  0  0  0  0  0  0  0  0  0  0
    4.5485   -3.8191    1.0665 h   0  0  0  0  0  0  0  0  0  0  0  0
  1  2  1  0  0  0  0
  2  3  1  0  0  0  0
  3  4  2  0  0  0  0
  3  5  1  0  0  0  0
  5  6  4  0  0  0  0
  6  7  2  0  0  0  0
  7  8  1  0  0  0  0
  7  9  1  0  0  0  0
  5 10  4  0  0  0  0
  9 10  1  0  0  0  0
 10 11  1  0  0  0  0
  1 12  1  0  0  0  0
  1 13  1  0  0  0  0
  1 14  1  0  0  0  0
  6 15  1  0  0  0  0
  8 16  1  0  0  0  0
  8 17  1  0  0  0  0
  8 18  1  0  0  0  0
 11 19  1  0  0  0  0
 11 20  1  0  0  0  0
 11 21  1  0  0  0  0
M  END
