34

C          2.82866       -1.16322        0.66778
C          2.31370       -0.17690       -0.07880
C          3.05490        0.59160       -1.12310
C          4.11770        0.04230       -1.87030
C          4.78270        0.79410       -2.86650
C          5.91530        0.22780       -3.66530
C          6.77581       -0.70744       -3.23486
C          4.36200        2.12120       -3.11770
O          4.97530        2.84200       -4.09930
C          4.67805        4.14738       -4.44256
C          4.90723        5.06136       -3.27103
C          5.29559        6.39343       -3.49014
C          5.48604        7.25959       -2.40919
C          5.29085        6.80184       -1.10276
C          4.90455        5.47846       -0.87632
C          4.71348        4.60790       -1.95485
C          3.31140        2.66760       -2.35690
C          2.67070        1.91690       -1.37520
F          1.65690        2.49120       -0.67720
H          2.19723       -1.66413        1.39481
H          3.85167       -1.50248        0.58169
H          1.26811        0.06413        0.09132
H          4.42180       -0.96850       -1.67840
H          6.07529        0.59907       -4.67257
H          6.73385       -1.15146       -2.24979
H          7.56846       -1.04539       -3.89452
H          3.62432        4.20687       -4.79379
H          5.34952        4.48309       -5.26320
H          5.44503        6.76138       -4.49815
H          5.78188        8.28565       -2.58383
H          5.43246        7.47545       -0.26742
H          4.75049        5.12664        0.13541
H          4.40970        3.58701       -1.76266
H          2.97120        3.68080       -2.51970
34

C          1.21547       -0.91385       -0.29369
C          2.31370       -0.17690       -0.07880
C          3.05490        0.59160       -1.12310
C          4.11770        0.04230       -1.87030
C          4.78270        0.79410       -2.86650
C          5.91530        0.22780       -3.66530
C          6.77581       -0.70744       -3.23486
C          4.36200        2.12120       -3.11770
O          4.97530        2.84200       -4.09930
C          4.38126        3.83107       -4.86026
C          3.90204        4.95152       -3.97973
C          4.09410        4.87856       -2.59012
C          3.67609        5.92650       -1.76425
C          3.06317        7.05353       -2.31970
C          2.86850        7.13387       -3.70082
C          3.28451        6.08736       -4.53112
C          3.31140        2.66760       -2.35690
C          2.67070        1.91690       -1.37520
F          1.65690        2.49120       -0.67720
H          0.74824       -1.42670        0.54111
H          0.75297       -1.02312       -1.26488
H          2.67575       -0.13397        0.94461
H          4.42180       -0.96850       -1.67840
H          6.07529        0.59907       -4.67257
H          6.73385       -1.15146       -2.24979
H          7.56846       -1.04539       -3.89452
H          3.54006        3.39480       -5.44274
H          5.12461        4.25872       -5.56848
H          4.57245        4.01268       -2.14828
H          3.82959        5.86663       -0.69483
H          2.74600        7.86671       -1.67960
H          2.39704        8.00850       -4.12958
H          3.13057        6.16714       -5.59947
H          2.97120        3.68080       -2.51970
34

C          2.82866       -1.16322        0.66778
C          2.31370       -0.17690       -0.07880
C          3.05490        0.59160       -1.12310
C          4.11770        0.04230       -1.87030
C          4.78270        0.79410       -2.86650
C          5.91530        0.22780       -3.66530
C          6.77581       -0.70744       -3.23486
C          4.36200        2.12120       -3.11770
O          4.97530        2.84200       -4.09930
C          5.54614        2.31780       -5.24366
C          5.45342        3.30502       -6.37378
C          6.44226        3.31928       -7.37139
C          6.35233        4.21527       -8.44100
C          5.27551        5.10317       -8.52154
C          4.28784        5.09534       -7.53346
C          4.37401        4.20101       -6.46090
C          3.31140        2.66760       -2.35690
C          2.67070        1.91690       -1.37520
F          1.65690        2.49120       -0.67720
H          2.19723       -1.66413        1.39481
H          3.85167       -1.50248        0.58169
H          1.26811        0.06413        0.09132
H          4.42180       -0.96850       -1.67840
H          6.07529        0.59907       -4.67257
H          6.73385       -1.15146       -2.24979
H          7.56846       -1.04539       -3.89452
H          5.03910        1.36323       -5.50626
H          6.62521        2.11436       -5.06688
H          7.27890        2.63265       -7.32279
H          7.11502        4.21966       -9.20853
H          5.20405        5.79172       -9.35363
H          3.45311        5.78090       -7.59911
H          3.59822        4.20448       -5.70620
H          2.97120        3.68080       -2.51970
34

C          1.21547       -0.91385       -0.29369
C          2.31370       -0.17690       -0.07880
C          3.05490        0.59160       -1.12310
C          4.11770        0.04230       -1.87030
C          4.78270        0.79410       -2.86650
C          5.91530        0.22780       -3.66530
C          6.77581       -0.70744       -3.23486
C          4.36200        2.12120       -3.11770
O          4.97530        2.84200       -4.09930
C          5.54614        2.31780       -5.24366
C          6.99561        1.99736       -5.00548
C          7.56785        2.24524       -3.74678
C          8.90787        1.92685       -3.50605
C          9.68552        1.35977       -4.51998
C          9.12393        1.11004       -5.77461
C          7.78364        1.42764       -6.02034
C          3.31140        2.66760       -2.35690
C          2.67070        1.91690       -1.37520
F          1.65690        2.49120       -0.67720
H          0.74824       -1.42670        0.54111
H          0.75297       -1.02312       -1.26488
H          2.67575       -0.13397        0.94461
H          4.42180       -0.96850       -1.67840
H          6.07529        0.59907       -4.67257
H          6.73385       -1.15146       -2.24979
H          7.56846       -1.04539       -3.89452
H          5.43070        3.04206       -6.07994
H          5.03590        1.36835       -5.51795
H          6.97412        2.67962       -2.95143
H          9.34267        2.11674       -2.53358
H         10.72093        1.10795       -4.32997
H          9.72630        0.66781       -6.55735
H          7.36246        1.22360       -6.99625
H          2.97120        3.68080       -2.51970
34

C          2.63593       -0.22573        1.22088
C          2.31370       -0.17690       -0.07880
C          3.05490        0.59160       -1.12310
C          4.11770        0.04230       -1.87030
C          4.78270        0.79410       -2.86650
C          5.91530        0.22780       -3.66530
C          6.59944        0.88525       -4.61406
C          4.36200        2.12120       -3.11770
O          4.97530        2.84200       -4.09930
C          5.13936        4.21431       -4.10518
C          4.46225        4.81684       -5.30471
C          3.43676        5.76028       -5.12713
C          2.81801        6.34663       -6.23542
C          3.21815        5.99478       -7.52789
C          4.23732        5.05731       -7.71308
C          4.85889        4.46741       -6.60705
C          3.31140        2.66760       -2.35690
C          2.67070        1.91690       -1.37520
F          1.65690        2.49120       -0.67720
H          2.03257       -0.82489        1.89554
H          3.48169        0.29822        1.64423
H          1.44854       -0.75798       -0.38561
H          4.42180       -0.96850       -1.67840
H          6.21464       -0.79951       -3.48347
H          6.39492        1.90802       -4.89934
H          7.40166        0.37782       -5.14000
H          6.22478        4.45728       -4.09681
H          4.66604        4.65394       -3.19979
H          3.12131        6.04495       -4.13052
H          2.03095        7.07535       -6.09288
H          2.74252        6.45443       -8.38469
H          4.54828        4.78861       -8.71417
H          5.64996        3.74639       -6.76755
H          2.97120        3.68080       -2.51970
34

C          2.82866       -1.16322        0.66778
C          2.31370       -0.17690       -0.07880
C          3.05490        0.59160       -1.12310
C          4.11770        0.04230       -1.87030
C          4.78270        0.79410       -2.86650
C          5.91530        0.22780       -3.66530
C          6.77581       -0.70744       -3.23486
C          4.36200        2.12120       -3.11770
O          4.97530        2.84200       -4.09930
C          5.54614        2.31780       -5.24366
C          6.14053        3.41548       -6.08162
C          6.05843        4.74855       -5.64642
C          6.63057        5.77462       -6.40459
C          7.28764        5.47704       -7.60213
C          7.37372        4.15379       -8.04193
C          6.80208        3.12381       -7.28694
C          3.31140        2.66760       -2.35690
C          2.67070        1.91690       -1.37520
F          1.65690        2.49120       -0.67720
H          2.19723       -1.66413        1.39481
H          3.85167       -1.50248        0.58169
H          1.26811        0.06413        0.09132
H          4.42180       -0.96850       -1.67840
H          6.07529        0.59907       -4.67257
H          6.73385       -1.15146       -2.24979
H          7.56846       -1.04539       -3.89452
H          4.77732        1.75251       -5.81516
H          6.37131        1.62443       -4.96911
H          5.55630        4.99129       -4.71759
H          6.56737        6.79937       -6.06297
H          7.73559        6.27183       -8.18457
H          7.88571        3.92472       -8.96739
H          6.88155        2.10350       -7.63920
H          2.97120        3.68080       -2.51970
34

C          2.63593       -0.22573        1.22088
C          2.31370       -0.17690       -0.07880
C          3.05490        0.59160       -1.12310
C          4.11770        0.04230       -1.87030
C          4.78270        0.79410       -2.86650
C          5.91530        0.22780       -3.66530
C          5.79140       -0.42392       -4.83163
C          4.36200        2.12120       -3.11770
O          4.97530        2.84200       -4.09930
C          6.00462        2.39070       -4.90367
C          5.94418        3.05375       -6.25166
C          6.63649        4.25637       -6.46994
C          6.60881        4.86811       -7.72692
C          5.88958        4.28406       -8.77381
C          5.19838        3.08804       -8.56494
C          5.22263        2.47264       -7.30863
C          3.31140        2.66760       -2.35690
C          2.67070        1.91690       -1.37520
F          1.65690        2.49120       -0.67720
H          2.03257       -0.82489        1.89554
H          3.48169        0.29822        1.64423
H          1.44854       -0.75798       -0.38561
H          4.42180       -0.96850       -1.67840
H          6.92461        0.33424       -3.28059
H          4.84272       -0.60697       -5.31720
H          6.67985       -0.80144       -5.32742
H          5.94054        1.28449       -5.00087
H          6.98340        2.65481       -4.44622
H          7.20160        4.71608       -5.66800
H          7.14669        5.79263       -7.89050
H          5.87449        4.75558       -9.74799
H          4.64497        2.63540       -9.37731
H          4.68573        1.54398       -7.16453
H          2.97120        3.68080       -2.51970
34

C          1.21547       -0.91385       -0.29369
C          2.31370       -0.17690       -0.07880
C          3.05490        0.59160       -1.12310
C          4.11770        0.04230       -1.87030
C          4.78270        0.79410       -2.86650
C          5.91530        0.22780       -3.66530
C          6.77581       -0.70744       -3.23486
C          4.36200        2.12120       -3.11770
O          4.97530        2.84200       -4.09930
C          6.28822        2.69295       -4.50453
C          6.34730        2.32061       -5.95994
C          7.44601        2.71992       -6.73881
C          7.52420        2.35697       -8.08682
C          6.50623        1.59389       -8.66632
C          5.41014        1.19270       -7.89855
C          5.32724        1.55412       -6.54943
C          3.31140        2.66760       -2.35690
C          2.67070        1.91690       -1.37520
F          1.65690        2.49120       -0.67720
H          0.74824       -1.42670        0.54111
H          0.75297       -1.02312       -1.26488
H          2.67575       -0.13397        0.94461
H          4.42180       -0.96850       -1.67840
H          6.07529        0.59907       -4.67257
H          6.73385       -1.15146       -2.24979
H          7.56846       -1.04539       -3.89452
H          6.78426        1.92113       -3.87565
H          6.83081        3.65646       -4.38499
H          8.24368        3.30715       -6.29988
H          8.37445        2.66435       -8.68131
H          6.57148        1.30834       -9.70834
H          4.62468        0.59909       -8.34774
H          4.47380        1.23140       -5.96727
H          2.97120        3.68080       -2.51970
34

C          1.21547       -0.91385       -0.29369
C          2.31370       -0.17690       -0.07880
C          3.05490        0.59160       -1.12310
C          4.11770        0.04230       -1.87030
C          4.78270        0.79410       -2.86650
C          5.91530        0.22780       -3.66530
C          6.77581       -0.70744       -3.23486
C          4.36200        2.12120       -3.11770
O          4.97530        2.84200       -4.09930
C          4.67805        4.14738       -4.44256
C          5.54957        4.60024       -5.58086
C          5.06619        5.55105       -6.49494
C          5.87733        5.99897       -7.54202
C          7.17568        5.50044       -7.68402
C          7.66398        4.55463       -6.77912
C          6.85567        4.10294       -5.73020
C          3.31140        2.66760       -2.35690
C          2.67070        1.91690       -1.37520
F          1.65690        2.49120       -0.67720
H          0.74824       -1.42670        0.54111
H          0.75297       -1.02312       -1.26488
H          2.67575       -0.13397        0.94461
H          4.42180       -0.96850       -1.67840
H          6.07529        0.59907       -4.67257
H          6.73385       -1.15146       -2.24979
H          7.56846       -1.04539       -3.89452
H          4.81104        4.80312       -3.55399
H          3.62182        4.21561       -4.78426
H          4.06360        5.94868       -6.39246
H          5.50115        6.73404       -8.24128
H          7.80453        5.85304       -8.49137
H          8.67045        4.17231       -6.88838
H          7.25057        3.37342       -5.03501
H          2.97120        3.68080       -2.51970
34

C          1.02681        0.00384        0.24774
C          2.31370       -0.17690       -0.07880
C          3.05490        0.59160       -1.12310
C          4.11770        0.04230       -1.87030
C          4.78270        0.79410       -2.86650
C          5.91530        0.22780       -3.66530
C          6.59944        0.88525       -4.61406
C          4.36200        2.12120       -3.11770
O          4.97530        2.84200       -4.09930
C          4.38126        3.83107       -4.86026
C          4.55220        5.17155       -4.20128
C          5.67381        5.96091       -4.50483
C          5.82973        7.22037       -3.91797
C          4.86780        7.69984       -3.02398
C          3.74938        6.92098       -2.71681
C          3.58948        5.65976       -3.30108
C          3.31140        2.66760       -2.35690
C          2.67070        1.91690       -1.37520
F          1.65690        2.49120       -0.67720
H          0.58706       -0.60518        1.03127
H          0.39080        0.73956       -0.22478
H          2.85236       -0.93873        0.47775
H          4.42180       -0.96850       -1.67840
H          6.21464       -0.79951       -3.48347
H          6.39492        1.90802       -4.89934
H          7.40166        0.37782       -5.14000
H          3.30435        3.59184       -5.00263
H          4.87189        3.88498       -5.85696
H          6.42354        5.60252       -5.19999
H          6.69389        7.82571       -4.15796
H          4.98680        8.67775       -2.57552
H          3.00393        7.29504       -2.02727
H          2.71507        5.07081       -3.05617
H          2.97120        3.68080       -2.51970
