21

C          2.52010        1.07030        0.01120
C          1.21140        0.33620        0.00590
C         -0.00450        1.03700        0.00190
C         -1.22870        0.34410       -0.00260
C         -2.54910        1.07440       -0.00590
F         -2.37661        2.44820       -0.00268
F         -3.26613        0.72430       -1.13563
F         -3.27427        0.71981        1.11687
C         -1.22060       -1.06080       -0.00400
C         -0.00900       -1.76890       -0.00090
C          0.00440       -3.26960       -0.00390
C          1.20300       -1.06540        0.00460
H          2.37140        2.17130        0.00760
H          3.10750        0.79340       -0.88940
H          3.09710        0.79770        0.91990
H          0.00890        2.11970        0.00290
H         -2.16040       -1.60040       -0.00810
H         -1.02470       -3.68770       -0.00800
H          0.53030       -3.64040        0.90110
H          0.53540       -3.63590       -0.90790
H          2.14080       -1.60900        0.00730
