
 OpenBabel02012213453D

 21 21  0  0  0  0  0  0  0  0999 V2000
    2.5247    1.0720    0.0118 C   0  0  0  0  0  0  0  0  0  0  0  0
    1.2177    0.3343    0.0067 C   0  0  0  0  0  0  0  0  0  0  0  0
    0.0007    1.0258    0.0053 C   0  0  0  0  0  0  0  0  0  0  0  0
   -1.2201    0.3333    0.0011 C   0  0  0  0  0  0  0  0  0  0  0  0
   -2.5355    1.0712   -0.0040 C   0  0  0  0  0  0  0  0  0  0  0  0
   -2.4033    2.4276   -0.0036 F   0  0  0  0  0  0  0  0  0  0  0  0
   -3.2962    0.7734   -1.0945 F   0  0  0  0  0  0  0  0  0  0  0  0
   -3.3062    0.7737    1.0793 F   0  0  0  0  0  0  0  0  0  0  0  0
   -1.2070   -1.0708   -0.0019 C   0  0  0  0  0  0  0  0  0  0  0  0
    0.0011   -1.7782   -0.0005 C   0  0  0  0  0  0  0  0  0  0  0  0
    0.0115   -3.2786   -0.0075 C   0  0  0  0  0  0  0  0  0  0  0  0
    1.2074   -1.0669    0.0044 C   0  0  0  0  0  0  0  0  0  0  0  0
    2.3749    2.1567   -0.0052 H   0  0  0  0  0  0  0  0  0  0  0  0
    3.1138    0.8019   -0.8706 H   0  0  0  0  0  0  0  0  0  0  0  0
    3.0930    0.8251    0.9145 H   0  0  0  0  0  0  0  0  0  0  0  0
   -0.0003    2.1154    0.0066 H   0  0  0  0  0  0  0  0  0  0  0  0
   -2.1525   -1.6134   -0.0066 H   0  0  0  0  0  0  0  0  0  0  0  0
   -1.0047   -3.6859   -0.0109 H   0  0  0  0  0  0  0  0  0  0  0  0
    0.5213   -3.6570    0.8843 H   0  0  0  0  0  0  0  0  0  0  0  0
    0.5235   -3.6484   -0.9016 H   0  0  0  0  0  0  0  0  0  0  0  0
    2.1511   -1.6099    0.0054 H   0  0  0  0  0  0  0  0  0  0  0  0
  1  2  1  0  0  0  0
  1 13  1  0  0  0  0
  1 14  1  0  0  0  0
  1 15  1  0  0  0  0
  2  3  1  0  0  0  0
  2 12  2  0  0  0  0
  3  4  2  0  0  0  0
  3 16  1  0  0  0  0
  4  5  1  0  0  0  0
  4  9  1  0  0  0  0
  5  6  1  0  0  0  0
  5  7  1  0  0  0  0
  5  8  1  0  0  0  0
  9 10  2  0  0  0  0
  9 17  1  0  0  0  0
 10 11  1  0  0  0  0
 10 12  1  0  0  0  0
 11 18  1  0  0  0  0
 11 19  1  0  0  0  0
 11 20  1  0  0  0  0
 12 21  1  0  0  0  0
M  END
