
  xtb     02032211363D
 xtb: 6.4.1 (23d549d)
 29 30  0     0  0            999 V2000
   -1.8068   -2.9413   -0.9486 C   0  0  0  0  0  0  0  0  0  0  0  0
   -1.1560   -2.3994    0.0687 C   0  0  0  0  0  0  0  0  0  0  0  0
   -0.7024   -0.9972    0.0872 C   0  0  0  0  0  0  0  0  0  0  0  0
   -1.5481    0.0973    0.0398 C   0  0  0  0  0  0  0  0  0  0  0  0
   -2.9118    0.0965    0.0963 O   0  0  0  0  0  0  0  0  0  0  0  0
   -3.6247   -0.9803    0.6534 C   0  0  0  0  0  0  0  0  0  0  0  0
   -1.0186    1.4018   -0.0563 C   0  0  0  0  0  0  0  0  0  0  0  0
    0.3269    1.6658   -0.0677 C   0  0  0  0  0  0  0  0  0  0  0  0
    0.8870    3.0055   -0.1645 C   0  0  0  0  0  0  0  0  0  0  0  0
    0.2120    4.1264   -0.3922 C   0  0  0  0  0  0  0  0  0  0  0  0
    1.2245    0.5600    0.0407 C   0  0  0  0  0  0  0  0  0  0  0  0
    2.5452    0.8074    0.0623 N   0  0  0  0  0  0  0  0  0  0  0  0
    3.3821   -0.1901    0.1296 C   0  0  0  0  0  0  0  0  0  0  0  0
    2.9808   -1.5332    0.1645 C   0  0  0  0  0  0  0  0  0  0  0  0
    1.6407   -1.8134    0.1465 C   0  0  0  0  0  0  0  0  0  0  0  0
    0.7015   -0.7601    0.1034 C   0  0  0  0  0  0  0  0  0  0  0  0
   -2.1046   -3.9766   -0.9489 H   0  0  0  0  0  0  0  0  0  0  0  0
   -2.0587   -2.3671   -1.8256 H   0  0  0  0  0  0  0  0  0  0  0  0
   -0.8830   -3.0045    0.9263 H   0  0  0  0  0  0  0  0  0  0  0  0
   -4.5662   -0.5566    1.0063 H   0  0  0  0  0  0  0  0  0  0  0  0
   -3.0901   -1.4273    1.4950 H   0  0  0  0  0  0  0  0  0  0  0  0
   -3.8341   -1.7566   -0.0884 H   0  0  0  0  0  0  0  0  0  0  0  0
   -1.7410    2.2009   -0.1063 H   0  0  0  0  0  0  0  0  0  0  0  0
    1.9610    3.0325   -0.0459 H   0  0  0  0  0  0  0  0  0  0  0  0
   -0.8553    4.1489   -0.5341 H   0  0  0  0  0  0  0  0  0  0  0  0
    0.7143    5.0767   -0.4509 H   0  0  0  0  0  0  0  0  0  0  0  0
    4.4320    0.0742    0.1493 H   0  0  0  0  0  0  0  0  0  0  0  0
    3.7176   -2.3211    0.2001 H   0  0  0  0  0  0  0  0  0  0  0  0
    1.2971   -2.8375    0.1581 H   0  0  0  0  0  0  0  0  0  0  0  0
  1  2  2  0  0  0  0
  2  3  1  0  0  0  0
  3  4  4  0  0  0  0
  4  5  1  0  0  0  0
  5  6  1  0  0  0  0
  4  7  4  0  0  0  0
  7  8  2  0  0  0  0
  8  9  1  0  0  0  0
  9 10  2  0  0  0  0
  8 11  1  0  0  0  0
 11 12  4  0  0  0  0
 12 13  2  0  0  0  0
 13 14  4  0  0  0  0
 14 15  2  0  0  0  0
  3 16  4  0  0  0  0
 11 16  4  0  0  0  0
 15 16  4  0  0  0  0
  1 17  1  0  0  0  0
  1 18  1  0  0  0  0
  2 19  1  0  0  0  0
  6 20  1  0  0  0  0
  6 21  1  0  0  0  0
  6 22  1  0  0  0  0
  7 23  1  0  0  0  0
  9 24  1  0  0  0  0
 10 25  1  0  0  0  0
 10 26  1  0  0  0  0
 13 27  1  0  0  0  0
 14 28  1  0  0  0  0
 15 29  1  0  0  0  0
M  END
