18

C          2.55617       -0.14173       -1.22735
C          2.35370       -0.00930        0.08810
C          3.18490       -0.70380        1.09540
C          2.81720       -1.97310        1.55870
N          3.59250       -2.59960        2.48210
C          4.72430       -2.02300        2.97280
C          5.55890       -2.71910        3.97620
C          5.36955       -2.57910        5.29277
C          5.09120       -0.75310        2.51050
N          4.31630       -0.12700        1.58680
H          1.91875        0.38801       -1.92788
H          3.34815       -0.77120       -1.62089
H          1.54522        0.63414        0.42415
H          1.92440       -2.46230        1.19070
H          6.35810       -3.37181        3.63590
H          4.58654       -1.94131        5.69067
H          6.00820       -3.11213        5.98966
H          5.98410       -0.26410        2.87810
18

C          1.35095        0.80989        0.42328
C          2.35370       -0.00930        0.08810
C          3.18490       -0.70380        1.09540
C          2.81720       -1.97310        1.55870
N          3.59250       -2.59960        2.48210
C          4.72430       -2.02300        2.97280
C          5.55890       -2.71910        3.97620
C          6.56994       -3.52636        3.63717
C          5.09120       -0.75310        2.51050
N          4.31630       -0.12700        1.58680
H          0.76969        1.29757       -0.35259
H          1.09772        1.00491        1.46068
H          2.56185       -0.16639       -0.96668
H          1.92440       -2.46230        1.19070
H          5.34731       -2.57173        5.03170
H          6.82787       -3.71052        2.59901
H          7.15407       -4.01403        4.41086
H          5.98410       -0.26410        2.87810
18

C          1.35095        0.80989        0.42328
C          2.35370       -0.00930        0.08810
C          3.18490       -0.70380        1.09540
C          2.81720       -1.97310        1.55870
N          3.59250       -2.59960        2.48210
C          4.72430       -2.02300        2.97280
C          5.55890       -2.71910        3.97620
C          5.36955       -2.57910        5.29277
C          5.09120       -0.75310        2.51050
N          4.31630       -0.12700        1.58680
H          0.76969        1.29757       -0.35259
H          1.09772        1.00491        1.46068
H          2.56185       -0.16639       -0.96668
H          1.92440       -2.46230        1.19070
H          6.35810       -3.37181        3.63590
H          4.58654       -1.94131        5.69067
H          6.00820       -3.11213        5.98966
H          5.98410       -0.26410        2.87810
18

C          2.55617       -0.14173       -1.22735
C          2.35370       -0.00930        0.08810
C          3.18490       -0.70380        1.09540
C          2.81720       -1.97310        1.55870
N          3.59250       -2.59960        2.48210
C          4.72430       -2.02300        2.97280
C          5.55890       -2.71910        3.97620
C          6.56994       -3.52636        3.63717
C          5.09120       -0.75310        2.51050
N          4.31630       -0.12700        1.58680
H          1.91875        0.38801       -1.92788
H          3.34815       -0.77120       -1.62089
H          1.54522        0.63414        0.42415
H          1.92440       -2.46230        1.19070
H          5.34731       -2.57173        5.03170
H          6.82787       -3.71052        2.59901
H          7.15407       -4.01403        4.41086
H          5.98410       -0.26410        2.87810
18

C          1.35095        0.80989        0.42328
C          2.35370       -0.00930        0.08810
C          3.18490       -0.70380        1.09540
C          2.81720       -1.97310        1.55870
N          3.59250       -2.59960        2.48210
C          4.72430       -2.02300        2.97280
C          5.55890       -2.71910        3.97620
C          6.88209       -2.54305        4.05968
C          5.09120       -0.75310        2.51050
N          4.31630       -0.12700        1.58680
H          0.76969        1.29757       -0.35259
H          1.09772        1.00491        1.46068
H          2.56185       -0.16639       -0.96668
H          1.92440       -2.46230        1.19070
H          5.08341       -3.40074        4.67608
H          7.41094       -1.87430        3.38789
H          7.45105       -3.07635        4.81436
H          5.98410       -0.26410        2.87810
18

C          2.55617       -0.14173       -1.22735
C          2.35370       -0.00930        0.08810
C          3.18490       -0.70380        1.09540
C          2.81720       -1.97310        1.55870
N          3.59250       -2.59960        2.48210
C          4.72430       -2.02300        2.97280
C          5.55890       -2.71910        3.97620
C          6.88209       -2.54305        4.05968
C          5.09120       -0.75310        2.51050
N          4.31630       -0.12700        1.58680
H          1.91875        0.38801       -1.92788
H          3.34815       -0.77120       -1.62089
H          1.54522        0.63414        0.42415
H          1.92440       -2.46230        1.19070
H          5.08341       -3.40074        4.67608
H          7.41094       -1.87430        3.38789
H          7.45105       -3.07635        4.81436
H          5.98410       -0.26410        2.87810
18

C          2.25867        1.32349        0.02836
C          2.35370       -0.00930        0.08810
C          3.18490       -0.70380        1.09540
C          2.81720       -1.97310        1.55870
N          3.59250       -2.59960        2.48210
C          4.72430       -2.02300        2.97280
C          5.55890       -2.71910        3.97620
C          6.88209       -2.54305        4.05968
C          5.09120       -0.75310        2.51050
N          4.31630       -0.12700        1.58680
H          1.63610        1.78705       -0.73005
H          2.79231        1.96398        0.72359
H          1.79711       -0.59980       -0.63446
H          1.92440       -2.46230        1.19070
H          5.08341       -3.40074        4.67608
H          7.41094       -1.87430        3.38789
H          7.45105       -3.07635        4.81436
H          5.98410       -0.26410        2.87810
18

C          2.25867        1.32349        0.02836
C          2.35370       -0.00930        0.08810
C          3.18490       -0.70380        1.09540
C          2.81720       -1.97310        1.55870
N          3.59250       -2.59960        2.48210
C          4.72430       -2.02300        2.97280
C          5.55890       -2.71910        3.97620
C          6.56994       -3.52636        3.63717
C          5.09120       -0.75310        2.51050
N          4.31630       -0.12700        1.58680
H          1.63610        1.78705       -0.73005
H          2.79231        1.96398        0.72359
H          1.79711       -0.59980       -0.63446
H          1.92440       -2.46230        1.19070
H          5.34731       -2.57173        5.03170
H          6.82787       -3.71052        2.59901
H          7.15407       -4.01403        4.41086
H          5.98410       -0.26410        2.87810
18

C          2.66810        1.19694       -0.39673
C          2.35370       -0.00930        0.08810
C          3.18490       -0.70380        1.09540
C          2.81720       -1.97310        1.55870
N          3.59250       -2.59960        2.48210
C          4.72430       -2.02300        2.97280
C          5.55890       -2.71910        3.97620
C          5.36955       -2.57910        5.29277
C          5.09120       -0.75310        2.51050
N          4.31630       -0.12700        1.58680
H          2.02660        1.66587       -1.13583
H          3.55674        1.72787       -0.06999
H          1.45190       -0.49356       -0.27636
H          1.92440       -2.46230        1.19070
H          6.35810       -3.37181        3.63590
H          4.58654       -1.94131        5.69067
H          6.00820       -3.11213        5.98966
H          5.98410       -0.26410        2.87810
18

C          2.25867        1.32349        0.02836
C          2.35370       -0.00930        0.08810
C          3.18490       -0.70380        1.09540
C          2.81720       -1.97310        1.55870
N          3.59250       -2.59960        2.48210
C          4.72430       -2.02300        2.97280
C          5.55890       -2.71910        3.97620
C          5.36955       -2.57910        5.29277
C          5.09120       -0.75310        2.51050
N          4.31630       -0.12700        1.58680
H          1.63610        1.78705       -0.73005
H          2.79231        1.96398        0.72359
H          1.79711       -0.59980       -0.63446
H          1.92440       -2.46230        1.19070
H          6.35810       -3.37181        3.63590
H          4.58654       -1.94131        5.69067
H          6.00820       -3.11213        5.98966
H          5.98410       -0.26410        2.87810
