 xtb: 6.5.0 (unknown)
          08122213083D

 23  0  0     0  0            999 V2000
   -4.0094    0.8338   -0.6697 C   0  0  0  0  0  0  0  0  0  0  0  0
   -2.9813    0.8521    0.1663 C   0  0  0  0  0  0  0  0  0  0  0  0
   -1.8985   -0.1347    0.1591 C   0  0  0  0  0  0  0  0  0  0  0  0
   -2.2038   -1.4675   -0.1056 C   0  0  0  0  0  0  0  0  0  0  0  0
   -1.2177   -2.4347   -0.1157 C   0  0  0  0  0  0  0  0  0  0  0  0
    0.0936   -2.0699    0.1104 C   0  0  0  0  0  0  0  0  0  0  0  0
    0.4281   -0.7372    0.3471 C   0  0  0  0  0  0  0  0  0  0  0  0
    1.8583   -0.4458    0.5162 C   0  0  0  0  0  0  0  0  0  0  0  0
    2.5380    0.4808   -0.1338 C   0  0  0  0  0  0  0  0  0  0  0  0
    2.0633    1.3374   -1.0309 F   0  0  0  0  0  0  0  0  0  0  0  0
    3.8478    0.6842    0.0121 F   0  0  0  0  0  0  0  0  0  0  0  0
   -0.5696    0.2404    0.4129 C   0  0  0  0  0  0  0  0  0  0  0  0
   -0.2392    1.6619    0.7539 C   0  0  0  0  0  0  0  0  0  0  0  0
   -4.7887    1.5752   -0.6240 H   0  0  0  0  0  0  0  0  0  0  0  0
   -4.1026    0.0924   -1.4458 H   0  0  0  0  0  0  0  0  0  0  0  0
   -2.9164    1.6405    0.9039 H   0  0  0  0  0  0  0  0  0  0  0  0
   -3.2325   -1.7456   -0.2774 H   0  0  0  0  0  0  0  0  0  0  0  0
   -1.4696   -3.4679   -0.3018 H   0  0  0  0  0  0  0  0  0  0  0  0
    0.8769   -2.8132    0.0877 H   0  0  0  0  0  0  0  0  0  0  0  0
    2.4261   -1.0947    1.1669 H   0  0  0  0  0  0  0  0  0  0  0  0
    0.7460    1.7394    1.2056 H   0  0  0  0  0  0  0  0  0  0  0  0
   -0.9631    2.0673    1.4575 H   0  0  0  0  0  0  0  0  0  0  0  0
   -0.2576    2.2829   -0.1410 H   0  0  0  0  0  0  0  0  0  0  0  0
M  END
