
  xtb     02032211353D
 xtb: 6.4.1 (23d549d)
 23 23  0     0  0            999 V2000
    3.1021    2.4508   -0.0275 C   0  0  0  0  0  0  0  0  0  0  0  0
    2.6625    1.1951   -0.0148 C   0  0  0  0  0  0  0  0  0  0  0  0
    1.2720    0.8279   -0.0165 C   0  0  0  0  0  0  0  0  0  0  0  0
    0.0450    2.0519   -0.0898 S   0  0  0  0  0  0  0  0  0  0  0  0
   -1.2214    0.8732   -0.0480 C   0  0  0  0  0  0  0  0  0  0  0  0
   -2.6032    1.2748   -0.1520 C   0  0  0  0  0  0  0  0  0  0  0  0
   -3.0252    2.5327   -0.0498 C   0  0  0  0  0  0  0  0  0  0  0  0
   -0.7044   -0.4120   -0.0024 C   0  0  0  0  0  0  0  0  0  0  0  0
   -1.5803   -1.6050    0.0311 C   0  0  0  0  0  0  0  0  0  0  0  0
   -1.3901   -2.5836   -0.6527 O   0  0  0  0  0  0  0  0  0  0  0  0
   -2.6312   -1.5570    0.8545 O   0  0  0  0  0  0  0  0  0  0  0  0
    0.7221   -0.4418   -0.0009 C   0  0  0  0  0  0  0  0  0  0  0  0
    1.6108   -1.6495    0.0818 C   0  0  0  0  0  0  0  0  0  0  0  0
    2.6623   -1.6063    0.6685 O   0  0  0  0  0  0  0  0  0  0  0  0
    1.2284   -2.7481   -0.5485 O   0  0  0  0  0  0  0  0  0  0  0  0
    4.1536    2.6746   -0.0252 H   0  0  0  0  0  0  0  0  0  0  0  0
    2.4277    3.2930   -0.0377 H   0  0  0  0  0  0  0  0  0  0  0  0
    3.3536    0.3657    0.0166 H   0  0  0  0  0  0  0  0  0  0  0  0
   -3.3162    0.4858   -0.3554 H   0  0  0  0  0  0  0  0  0  0  0  0
   -2.3421    3.3436    0.1410 H   0  0  0  0  0  0  0  0  0  0  0  0
   -4.0650    2.7851   -0.1537 H   0  0  0  0  0  0  0  0  0  0  0  0
   -2.6635   -0.7511    1.3885 H   0  0  0  0  0  0  0  0  0  0  0  0
    0.2924   -2.7514   -0.8569 H   0  0  0  0  0  0  0  0  0  0  0  0
  1  2  2  0  0  0  0
  2  3  1  0  0  0  0
  3  4  1  0  0  0  0
  4  5  1  0  0  0  0
  5  6  1  0  0  0  0
  6  7  2  0  0  0  0
  5  8  4  0  0  0  0
  8  9  1  0  0  0  0
  9 10  2  0  0  0  0
  9 11  1  0  0  0  0
  3 12  4  0  0  0  0
  8 12  4  0  0  0  0
 12 13  1  0  0  0  0
 13 14  2  0  0  0  0
 13 15  1  0  0  0  0
  1 16  1  0  0  0  0
  1 17  1  0  0  0  0
  2 18  1  0  0  0  0
  6 19  1  0  0  0  0
  7 20  1  0  0  0  0
  7 21  1  0  0  0  0
 11 22  1  0  0  0  0
 15 23  1  0  0  0  0
M  END
