
  xtb     02032211343D
 xtb: 6.4.1 (23d549d)
 46 48  0     0  0            999 V2000
    2.1407   -6.4793    0.5190 C   0  0  0  0  0  0  0  0  0  0  0  0
    2.7373   -5.4132   -0.1771 O   0  0  0  0  0  0  0  0  0  0  0  0
    2.1588   -4.1810   -0.0996 C   0  0  0  0  0  0  0  0  0  0  0  0
    1.0058   -3.8817    0.6174 C   0  0  0  0  0  0  0  0  0  0  0  0
    0.5096   -2.5904    0.6278 C   0  0  0  0  0  0  0  0  0  0  0  0
    1.1401   -1.5753   -0.0836 C   0  0  0  0  0  0  0  0  0  0  0  0
    0.6359   -0.2651   -0.0682 N   0  0  0  0  0  0  0  0  0  0  0  0
   -0.7304   -0.0324   -0.1233 C   0  0  0  0  0  0  0  0  0  0  0  0
   -1.2954    1.0798    0.5097 C   0  0  0  0  0  0  0  0  0  0  0  0
   -2.6503    1.3149    0.4537 C   0  0  0  0  0  0  0  0  0  0  0  0
   -3.5026    0.4478   -0.2366 C   0  0  0  0  0  0  0  0  0  0  0  0
   -4.9365    0.6366   -0.3362 C   0  0  0  0  0  0  0  0  0  0  0  0
   -5.6801    1.6155    0.1603 C   0  0  0  0  0  0  0  0  0  0  0  0
   -5.2863    2.6665    0.8747 F   0  0  0  0  0  0  0  0  0  0  0  0
   -7.0040    1.6794   -0.0025 F   0  0  0  0  0  0  0  0  0  0  0  0
   -2.9335   -0.6645   -0.8653 C   0  0  0  0  0  0  0  0  0  0  0  0
   -1.5797   -0.9031   -0.8140 C   0  0  0  0  0  0  0  0  0  0  0  0
    1.5409    0.8064    0.0042 C   0  0  0  0  0  0  0  0  0  0  0  0
    1.3383    1.9619   -0.7425 C   0  0  0  0  0  0  0  0  0  0  0  0
    2.2288    3.0183   -0.6753 C   0  0  0  0  0  0  0  0  0  0  0  0
    3.3548    2.9321    0.1359 C   0  0  0  0  0  0  0  0  0  0  0  0
    4.2979    3.9065    0.2755 O   0  0  0  0  0  0  0  0  0  0  0  0
    4.1375    5.1033   -0.4452 C   0  0  0  0  0  0  0  0  0  0  0  0
    3.5655    1.7683    0.8780 C   0  0  0  0  0  0  0  0  0  0  0  0
    2.6717    0.7236    0.8177 C   0  0  0  0  0  0  0  0  0  0  0  0
    2.2966   -1.8798   -0.8029 C   0  0  0  0  0  0  0  0  0  0  0  0
    2.7991   -3.1610   -0.8063 C   0  0  0  0  0  0  0  0  0  0  0  0
    2.7623   -7.3495    0.3143 H   0  0  0  0  0  0  0  0  0  0  0  0
    1.1225   -6.6721    0.1652 H   0  0  0  0  0  0  0  0  0  0  0  0
    2.1216   -6.2954    1.5983 H   0  0  0  0  0  0  0  0  0  0  0  0
    0.4870   -4.6406    1.1813 H   0  0  0  0  0  0  0  0  0  0  0  0
   -0.3800   -2.3672    1.1982 H   0  0  0  0  0  0  0  0  0  0  0  0
   -0.6564    1.7556    1.0581 H   0  0  0  0  0  0  0  0  0  0  0  0
   -3.0485    2.1777    0.9617 H   0  0  0  0  0  0  0  0  0  0  0  0
   -5.4836   -0.1140   -0.8889 H   0  0  0  0  0  0  0  0  0  0  0  0
   -3.5693   -1.3459   -1.4118 H   0  0  0  0  0  0  0  0  0  0  0  0
   -1.1625   -1.7621   -1.3180 H   0  0  0  0  0  0  0  0  0  0  0  0
    0.4730    2.0360   -1.3846 H   0  0  0  0  0  0  0  0  0  0  0  0
    2.0348    3.8978   -1.2685 H   0  0  0  0  0  0  0  0  0  0  0  0
    4.9906    5.7248   -0.1777 H   0  0  0  0  0  0  0  0  0  0  0  0
    3.2132    5.6203   -0.1672 H   0  0  0  0  0  0  0  0  0  0  0  0
    4.1444    4.9270   -1.5259 H   0  0  0  0  0  0  0  0  0  0  0  0
    4.4410    1.7123    1.5050 H   0  0  0  0  0  0  0  0  0  0  0  0
    2.8426   -0.1684    1.4015 H   0  0  0  0  0  0  0  0  0  0  0  0
    2.7979   -1.1012   -1.3580 H   0  0  0  0  0  0  0  0  0  0  0  0
    3.6919   -3.4041   -1.3600 H   0  0  0  0  0  0  0  0  0  0  0  0
  1  2  1  0  0  0  0
  2  3  1  0  0  0  0
  3  4  4  0  0  0  0
  4  5  4  0  0  0  0
  5  6  4  0  0  0  0
  6  7  1  0  0  0  0
  7  8  1  0  0  0  0
  8  9  4  0  0  0  0
  9 10  4  0  0  0  0
 10 11  4  0  0  0  0
 11 12  1  0  0  0  0
 12 13  2  0  0  0  0
 13 14  1  0  0  0  0
 13 15  1  0  0  0  0
 11 16  4  0  0  0  0
  8 17  4  0  0  0  0
 16 17  4  0  0  0  0
  7 18  1  0  0  0  0
 18 19  4  0  0  0  0
 19 20  4  0  0  0  0
 20 21  4  0  0  0  0
 21 22  1  0  0  0  0
 22 23  1  0  0  0  0
 21 24  4  0  0  0  0
 18 25  4  0  0  0  0
 24 25  4  0  0  0  0
  6 26  4  0  0  0  0
  3 27  4  0  0  0  0
 26 27  4  0  0  0  0
  1 28  1  0  0  0  0
  1 29  1  0  0  0  0
  1 30  1  0  0  0  0
  4 31  1  0  0  0  0
  5 32  1  0  0  0  0
  9 33  1  0  0  0  0
 10 34  1  0  0  0  0
 12 35  1  0  0  0  0
 16 36  1  0  0  0  0
 17 37  1  0  0  0  0
 19 38  1  0  0  0  0
 20 39  1  0  0  0  0
 23 40  1  0  0  0  0
 23 41  1  0  0  0  0
 23 42  1  0  0  0  0
 24 43  1  0  0  0  0
 25 44  1  0  0  0  0
 26 45  1  0  0  0  0
 27 46  1  0  0  0  0
M  END
