
  xtb     02032211363D
 xtb: 6.4.1 (23d549d)
 21 22  0     0  0            999 V2000
   -4.2820    1.1000    0.0185 C   0  0  0  0  0  0  0  0  0  0  0  0
   -2.9566    1.2041   -0.0026 C   0  0  0  0  0  0  0  0  0  0  0  0
   -2.0053    0.1080   -0.0041 C   0  0  0  0  0  0  0  0  0  0  0  0
   -2.3383   -1.2306   -0.0075 C   0  0  0  0  0  0  0  0  0  0  0  0
   -1.3810   -2.2527   -0.0077 C   0  0  0  0  0  0  0  0  0  0  0  0
   -0.0235   -2.0081   -0.0045 C   0  0  0  0  0  0  0  0  0  0  0  0
    1.0079   -3.0291   -0.0035 C   0  0  0  0  0  0  0  0  0  0  0  0
    0.8173   -4.3448    0.0194 C   0  0  0  0  0  0  0  0  0  0  0  0
    0.3720   -0.6402   -0.0033 C   0  0  0  0  0  0  0  0  0  0  0  0
    1.6288   -0.2122   -0.0020 N   0  0  0  0  0  0  0  0  0  0  0  0
    1.6407    1.5365   -0.0003 Se  0  0  0  0  0  0  0  0  0  0  0  0
   -0.1051    1.6392   -0.0015 N   0  0  0  0  0  0  0  0  0  0  0  0
   -0.6145    0.4131   -0.0031 C   0  0  0  0  0  0  0  0  0  0  0  0
   -4.9086    1.9749    0.0186 H   0  0  0  0  0  0  0  0  0  0  0  0
   -4.7944    0.1532    0.0375 H   0  0  0  0  0  0  0  0  0  0  0  0
   -2.4943    2.1819   -0.0181 H   0  0  0  0  0  0  0  0  0  0  0  0
   -3.3796   -1.5139   -0.0113 H   0  0  0  0  0  0  0  0  0  0  0  0
   -1.7319   -3.2733   -0.0117 H   0  0  0  0  0  0  0  0  0  0  0  0
    2.0138   -2.6318   -0.0210 H   0  0  0  0  0  0  0  0  0  0  0  0
   -0.1611   -4.7941    0.0406 H   0  0  0  0  0  0  0  0  0  0  0  0
    1.6492   -5.0274    0.0193 H   0  0  0  0  0  0  0  0  0  0  0  0
  1  2  2  0  0  0  0
  2  3  1  0  0  0  0
  3  4  4  0  0  0  0
  4  5  4  0  0  0  0
  5  6  4  0  0  0  0
  6  7  1  0  0  0  0
  7  8  2  0  0  0  0
  6  9  1  0  0  0  0
  9 10  4  0  0  0  0
 10 11  2  0  0  0  0
 11 12  2  0  0  0  0
  3 13  1  0  0  0  0
  9 13  1  0  0  0  0
 12 13  4  0  0  0  0
  1 14  1  0  0  0  0
  1 15  1  0  0  0  0
  2 16  1  0  0  0  0
  4 17  1  0  0  0  0
  5 18  1  0  0  0  0
  7 19  1  0  0  0  0
  8 20  1  0  0  0  0
  8 21  1  0  0  0  0
M  END
