
  xtb     02032211363D
 xtb: 6.4.1 (23d549d)
 23 24  0     0  0            999 V2000
   -4.1627    0.0507    0.1099 C   0  0  0  0  0  0  0  0  0  0  0  0
   -3.1202   -0.7533   -0.0578 C   0  0  0  0  0  0  0  0  0  0  0  0
   -1.7132   -0.3707   -0.0393 C   0  0  0  0  0  0  0  0  0  0  0  0
   -0.7277   -1.3884   -0.0282 C   0  0  0  0  0  0  0  0  0  0  0  0
    0.6223   -1.1215   -0.0044 C   0  0  0  0  0  0  0  0  0  0  0  0
    1.5846   -2.2100    0.0114 C   0  0  0  0  0  0  0  0  0  0  0  0
    2.9045   -2.0642    0.0332 C   0  0  0  0  0  0  0  0  0  0  0  0
    1.0155    0.2405    0.0016 C   0  0  0  0  0  0  0  0  0  0  0  0
    2.2118    0.7986    0.0184 N   0  0  0  0  0  0  0  0  0  0  0  0
    2.0050    2.1297    0.0104 C   0  0  0  0  0  0  0  0  0  0  0  0
    0.6651    2.4217   -0.0128 C   0  0  0  0  0  0  0  0  0  0  0  0
    0.0219    1.2220   -0.0176 N   0  0  0  0  0  0  0  0  0  0  0  0
   -1.2980    0.9365   -0.0372 C   0  0  0  0  0  0  0  0  0  0  0  0
   -5.1693   -0.3287    0.0823 H   0  0  0  0  0  0  0  0  0  0  0  0
   -4.0634    1.1078    0.2867 H   0  0  0  0  0  0  0  0  0  0  0  0
   -3.2923   -1.8109   -0.2134 H   0  0  0  0  0  0  0  0  0  0  0  0
   -1.0573   -2.4174   -0.0340 H   0  0  0  0  0  0  0  0  0  0  0  0
    1.1420   -3.1992    0.0045 H   0  0  0  0  0  0  0  0  0  0  0  0
    3.3504   -1.0852    0.0402 H   0  0  0  0  0  0  0  0  0  0  0  0
    3.5610   -2.9180    0.0446 H   0  0  0  0  0  0  0  0  0  0  0  0
    2.8327    2.8114    0.0214 H   0  0  0  0  0  0  0  0  0  0  0  0
    0.1414    3.3552   -0.0249 H   0  0  0  0  0  0  0  0  0  0  0  0
   -1.9749    1.7761   -0.0602 H   0  0  0  0  0  0  0  0  0  0  0  0
  1  2  2  0  0  0  0
  2  3  1  0  0  0  0
  3  4  4  0  0  0  0
  4  5  4  0  0  0  0
  5  6  1  0  0  0  0
  6  7  2  0  0  0  0
  5  8  4  0  0  0  0
  8  9  4  0  0  0  0
  9 10  4  0  0  0  0
 10 11  2  0  0  0  0
  8 12  1  0  0  0  0
 11 12  1  0  0  0  0
  3 13  4  0  0  0  0
 12 13  4  0  0  0  0
  1 14  1  0  0  0  0
  1 15  1  0  0  0  0
  2 16  1  0  0  0  0
  4 17  1  0  0  0  0
  6 18  1  0  0  0  0
  7 19  1  0  0  0  0
  7 20  1  0  0  0  0
 10 21  1  0  0  0  0
 11 22  1  0  0  0  0
 13 23  1  0  0  0  0
M  END
