
  xtb     02032211353D
 xtb: 6.4.1 (23d549d)
 25 25  0     0  0            999 V2000
    0.9579   -3.8577    0.1761 C   0  0  0  0  0  0  0  0  0  0  0  0
    1.5001   -2.6637   -0.0295 C   0  0  0  0  0  0  0  0  0  0  0  0
    0.7913   -1.3905   -0.0243 C   0  0  0  0  0  0  0  0  0  0  0  0
   -0.5919   -1.2775    0.0452 C   0  0  0  0  0  0  0  0  0  0  0  0
   -1.2332   -0.0461    0.0315 C   0  0  0  0  0  0  0  0  0  0  0  0
   -2.7216   -0.0722    0.0397 C   0  0  0  0  0  0  0  0  0  0  0  0
   -3.3651   -0.9073    0.6123 O   0  0  0  0  0  0  0  0  0  0  0  0
   -3.3371    0.8946   -0.6765 O   0  0  0  0  0  0  0  0  0  0  0  0
   -0.4847    1.1436    0.0114 C   0  0  0  0  0  0  0  0  0  0  0  0
   -1.1011    2.3829    0.0681 N   0  0  0  0  0  0  0  0  0  0  0  0
    0.9183    1.0656   -0.0866 C   0  0  0  0  0  0  0  0  0  0  0  0
    1.7234    2.2901   -0.1910 C   0  0  0  0  0  0  0  0  0  0  0  0
    2.8611    2.5050    0.4521 C   0  0  0  0  0  0  0  0  0  0  0  0
    1.5077   -0.1915   -0.1097 C   0  0  0  0  0  0  0  0  0  0  0  0
    2.8496   -0.2621   -0.2332 F   0  0  0  0  0  0  0  0  0  0  0  0
    1.5593   -4.7498    0.1575 H   0  0  0  0  0  0  0  0  0  0  0  0
   -0.0905   -3.9971    0.3755 H   0  0  0  0  0  0  0  0  0  0  0  0
    2.5644   -2.5887   -0.2094 H   0  0  0  0  0  0  0  0  0  0  0  0
   -1.2109   -2.1586    0.0925 H   0  0  0  0  0  0  0  0  0  0  0  0
   -2.7078    1.4465   -1.1629 H   0  0  0  0  0  0  0  0  0  0  0  0
   -1.9806    2.4175    0.5626 H   0  0  0  0  0  0  0  0  0  0  0  0
   -0.4866    3.1447    0.3116 H   0  0  0  0  0  0  0  0  0  0  0  0
    1.3303    3.0453   -0.8620 H   0  0  0  0  0  0  0  0  0  0  0  0
    3.2799    1.7835    1.1323 H   0  0  0  0  0  0  0  0  0  0  0  0
    3.4169    3.4173    0.3195 H   0  0  0  0  0  0  0  0  0  0  0  0
  1  2  2  0  0  0  0
  2  3  1  0  0  0  0
  3  4  4  0  0  0  0
  4  5  4  0  0  0  0
  5  6  1  0  0  0  0
  6  7  2  0  0  0  0
  6  8  1  0  0  0  0
  5  9  4  0  0  0  0
  9 10  1  0  0  0  0
  9 11  4  0  0  0  0
 11 12  1  0  0  0  0
 12 13  2  0  0  0  0
  3 14  4  0  0  0  0
 11 14  4  0  0  0  0
 14 15  1  0  0  0  0
  1 16  1  0  0  0  0
  1 17  1  0  0  0  0
  2 18  1  0  0  0  0
  4 19  1  0  0  0  0
  8 20  1  0  0  0  0
 10 21  1  0  0  0  0
 10 22  1  0  0  0  0
 12 23  1  0  0  0  0
 13 24  1  0  0  0  0
 13 25  1  0  0  0  0
M  END
