
  xtb     02032211353D
 xtb: 6.4.1 (23d549d)
 23 23  0     0  0            999 V2000
    3.2676    1.5602    0.0886 C   0  0  0  0  0  0  0  0  0  0  0  0
    2.8434    0.3096   -0.0479 C   0  0  0  0  0  0  0  0  0  0  0  0
    1.4615   -0.1540   -0.0274 C   0  0  0  0  0  0  0  0  0  0  0  0
    1.2039   -1.5212   -0.1324 C   0  0  0  0  0  0  0  0  0  0  0  0
   -0.0914   -1.9987   -0.1106 C   0  0  0  0  0  0  0  0  0  0  0  0
   -1.1760   -1.1426    0.0146 C   0  0  0  0  0  0  0  0  0  0  0  0
   -2.5708   -1.6912    0.0174 C   0  0  0  0  0  0  0  0  0  0  0  0
   -0.9359    0.2362    0.1155 C   0  0  0  0  0  0  0  0  0  0  0  0
   -2.0486    1.1776    0.2540 C   0  0  0  0  0  0  0  0  0  0  0  0
   -2.0686    2.4032   -0.2506 C   0  0  0  0  0  0  0  0  0  0  0  0
    0.3724    0.7047    0.0955 C   0  0  0  0  0  0  0  0  0  0  0  0
    4.3165    1.8014    0.0595 H   0  0  0  0  0  0  0  0  0  0  0  0
    2.5992    2.3910    0.2363 H   0  0  0  0  0  0  0  0  0  0  0  0
    3.5754   -0.4770   -0.1887 H   0  0  0  0  0  0  0  0  0  0  0  0
    2.0283   -2.2137   -0.2286 H   0  0  0  0  0  0  0  0  0  0  0  0
   -0.2661   -3.0625   -0.1944 H   0  0  0  0  0  0  0  0  0  0  0  0
   -2.5606   -2.7604   -0.1807 H   0  0  0  0  0  0  0  0  0  0  0  0
   -3.1797   -1.2022   -0.7417 H   0  0  0  0  0  0  0  0  0  0  0  0
   -3.0460   -1.5288    0.9854 H   0  0  0  0  0  0  0  0  0  0  0  0
   -2.9073    0.8171    0.8052 H   0  0  0  0  0  0  0  0  0  0  0  0
   -1.2537    2.7945   -0.8366 H   0  0  0  0  0  0  0  0  0  0  0  0
   -2.9118    3.0587   -0.1125 H   0  0  0  0  0  0  0  0  0  0  0  0
    0.5384    1.7657    0.1965 H   0  0  0  0  0  0  0  0  0  0  0  0
  1  2  2  0  0  0  0
  2  3  1  0  0  0  0
  3  4  4  0  0  0  0
  4  5  4  0  0  0  0
  5  6  4  0  0  0  0
  6  7  1  0  0  0  0
  6  8  4  0  0  0  0
  8  9  1  0  0  0  0
  9 10  2  0  0  0  0
  3 11  4  0  0  0  0
  8 11  4  0  0  0  0
  1 12  1  0  0  0  0
  1 13  1  0  0  0  0
  2 14  1  0  0  0  0
  4 15  1  0  0  0  0
  5 16  1  0  0  0  0
  7 17  1  0  0  0  0
  7 18  1  0  0  0  0
  7 19  1  0  0  0  0
  9 20  1  0  0  0  0
 10 21  1  0  0  0  0
 10 22  1  0  0  0  0
 11 23  1  0  0  0  0
M  END
