18

C          1.02080        0.02230        0.07340
C          2.52210        0.05670        0.07470
C          3.20850        1.28230        0.07260
C          4.61310        1.31230        0.07350
C          5.34890        2.62120        0.07080
C          5.32980        0.10470        0.07680
F          6.68740        0.11250        0.07790
C          4.64920       -1.11670        0.07900
F          5.34740       -2.27950        0.08220
C          3.25110       -1.14360        0.07790
F          2.60630       -2.33830        0.08000
H          0.58800        1.04530        0.07190
H          0.65870       -0.50940        0.97850
H          0.66040       -0.51150       -0.83100
H          2.65070        2.21130        0.07010
H          4.64950        3.48410        0.06820
H          5.98960        2.68740       -0.83370
H          5.98850        2.69190        0.97570
