
 OpenBabel08112216353D

 20 20  0  0  0  0  0  0  0  0999 V2000
    1.1283   -0.1189    0.5330 C   0  0  0  0  0  0  0  0  0  0  0  0
    2.2606    0.0159   -0.1662 C   0  0  0  0  0  0  0  0  0  0  0  0
    3.0238   -1.1398   -0.6481 C   0  0  0  0  0  0  0  0  0  0  0  0
    2.6500   -1.7134   -1.8761 C   0  0  0  0  0  0  0  0  0  0  0  0
    3.3519   -2.8033   -2.3935 C   0  0  0  0  0  0  0  0  0  0  0  0
    4.4304   -3.3185   -1.6861 C   0  0  0  0  0  0  0  0  0  0  0  0
    5.1052   -4.3611   -2.1892 F   0  0  0  0  0  0  0  0  0  0  0  0
    4.8045   -2.7684   -0.4646 C   0  0  0  0  0  0  0  0  0  0  0  0
    5.8432   -3.2983    0.2012 F   0  0  0  0  0  0  0  0  0  0  0  0
    4.1045   -1.6824    0.0770 C   0  0  0  0  0  0  0  0  0  0  0  0
    4.5092   -1.1575    1.3856 C   0  0  0  0  0  0  0  0  0  0  0  0
    5.4340   -0.2068    1.5345 C   0  0  0  0  0  0  0  0  0  0  0  0
    6.0455    0.3414    0.4628 F   0  0  0  0  0  0  0  0  0  0  0  0
    5.7532    0.2141    2.7764 F   0  0  0  0  0  0  0  0  0  0  0  0
    0.5851    0.7572    0.8743 H   0  0  0  0  0  0  0  0  0  0  0  0
    0.7176   -1.0918    0.7855 H   0  0  0  0  0  0  0  0  0  0  0  0
    2.6608    0.9979   -0.4074 H   0  0  0  0  0  0  0  0  0  0  0  0
    1.8078   -1.3095   -2.4360 H   0  0  0  0  0  0  0  0  0  0  0  0
    3.0659   -3.2499   -3.3409 H   0  0  0  0  0  0  0  0  0  0  0  0
    4.0250   -1.5875    2.2545 H   0  0  0  0  0  0  0  0  0  0  0  0
  1  2  2  0  0  0  0
  1 15  1  0  0  0  0
  1 16  1  0  0  0  0
  2  3  1  0  0  0  0
  2 17  1  0  0  0  0
  3  4  1  0  0  0  0
  3 10  2  0  0  0  0
  4  5  2  0  0  0  0
  4 18  1  0  0  0  0
  5  6  1  0  0  0  0
  5 19  1  0  0  0  0
  6  7  1  0  0  0  0
  6  8  2  0  0  0  0
  8  9  1  0  0  0  0
  8 10  1  0  0  0  0
 10 11  1  0  0  0  0
 11 12  2  0  0  0  0
 11 20  1  0  0  0  0
 12 13  1  0  0  0  0
 12 14  1  0  0  0  0
M  END
