  20

 C          1.2348100000        0.5297300000       -0.8538700000
 C          2.2606000000        0.0159000000       -0.1662000000
 C          3.0238000000       -1.1398000000       -0.6481000000
 C          2.6500000000       -1.7134000000       -1.8761000000
 C          3.3519000000       -2.8033000000       -2.3935000000
 C          4.4304000000       -3.3185000000       -1.6861000000
 F          5.1052000000       -4.3611000000       -2.1892000000
 C          4.8045000000       -2.7684000000       -0.4646000000
 F          5.8432000000       -3.2983000000        0.2012000000
 C          4.1045000000       -1.6824000000        0.0770000000
 C          4.5092000000       -1.1575000000        1.3856000000
 C          4.3432800000        0.1180600000        1.7415100000
 F          3.7681500000        1.0045800000        0.9010900000
 F          4.7514500000        0.5203300000        2.9633700000
 H          0.6905500000        1.3876600000       -0.4706600000
 H          0.9095900000        0.1142700000       -1.8028700000
 H          2.5712600000        0.4415200000        0.7851200000
 H          1.8078000000       -1.3095000000       -2.4360000000
 H          3.0659000000       -3.2499000000       -3.3409000000
 H          4.9706900000       -1.8587800000        2.0708500000
