
  xtb     02032211353D
 xtb: 6.4.1 (23d549d)
 53 53  0     0  0            999 V2000
    5.2112    4.2583    0.9171 C   0  0  0  0  0  0  0  0  0  0  0  0
    4.0808    3.6218    1.2112 C   0  0  0  0  0  0  0  0  0  0  0  0
    3.2168    2.9889    0.2544 C   0  0  0  0  0  0  0  0  0  0  0  0
    2.0434    2.3275    0.5121 C   0  0  0  0  0  0  0  0  0  0  0  0
    1.4059    1.8114   -0.6309 C   0  0  0  0  0  0  0  0  0  0  0  0
    0.1338    1.0238   -0.5750 C   0  0  0  0  0  0  0  0  0  0  0  0
    0.3881   -0.4845   -0.7068 C   0  0  0  0  0  0  0  0  0  0  0  0
    1.2372   -1.0668    0.4232 C   0  0  0  0  0  0  0  0  0  0  0  0
    0.6083   -0.9890    1.8166 C   0  0  0  0  0  0  0  0  0  0  0  0
   -0.7700   -1.6399    1.9423 C   0  0  0  0  0  0  0  0  0  0  0  0
   -0.7631   -3.1328    1.6200 C   0  0  0  0  0  0  0  0  0  0  0  0
   -2.0880   -3.8219    1.9492 C   0  0  0  0  0  0  0  0  0  0  0  0
   -3.2424   -3.3646    1.0595 C   0  0  0  0  0  0  0  0  0  0  0  0
   -4.5238   -4.1408    1.3559 C   0  0  0  0  0  0  0  0  0  0  0  0
   -5.6827   -3.7771    0.4271 C   0  0  0  0  0  0  0  0  0  0  0  0
   -6.2054   -2.3564    0.6308 C   0  0  0  0  0  0  0  0  0  0  0  0
   -7.4336   -2.0821   -0.2288 C   0  0  0  0  0  0  0  0  0  0  0  0
    2.1077    2.0814   -1.7874 C   0  0  0  0  0  0  0  0  0  0  0  0
    1.7586    1.7234   -3.1340 C   0  0  0  0  0  0  0  0  0  0  0  0
    2.5175    1.9470   -4.2041 C   0  0  0  0  0  0  0  0  0  0  0  0
    3.5609    2.9795   -1.4479 S   0  0  0  0  0  0  0  0  0  0  0  0
    5.8183    4.7156    1.6780 H   0  0  0  0  0  0  0  0  0  0  0  0
    5.5602    4.3390   -0.0991 H   0  0  0  0  0  0  0  0  0  0  0  0
    3.7438    3.5499    2.2381 H   0  0  0  0  0  0  0  0  0  0  0  0
    1.6473    2.2218    1.5075 H   0  0  0  0  0  0  0  0  0  0  0  0
   -0.5315    1.3389   -1.3827 H   0  0  0  0  0  0  0  0  0  0  0  0
   -0.3716    1.2293    0.3693 H   0  0  0  0  0  0  0  0  0  0  0  0
    0.9065   -0.6701   -1.6507 H   0  0  0  0  0  0  0  0  0  0  0  0
   -0.5720   -1.0010   -0.7515 H   0  0  0  0  0  0  0  0  0  0  0  0
    2.1941   -0.5392    0.4506 H   0  0  0  0  0  0  0  0  0  0  0  0
    1.4510   -2.1113    0.1879 H   0  0  0  0  0  0  0  0  0  0  0  0
    0.5244    0.0570    2.1180 H   0  0  0  0  0  0  0  0  0  0  0  0
    1.2915   -1.4717    2.5204 H   0  0  0  0  0  0  0  0  0  0  0  0
   -1.4760   -1.1233    1.2917 H   0  0  0  0  0  0  0  0  0  0  0  0
   -1.1168   -1.5060    2.9706 H   0  0  0  0  0  0  0  0  0  0  0  0
    0.0331   -3.6109    2.1965 H   0  0  0  0  0  0  0  0  0  0  0  0
   -0.5419   -3.2825    0.5617 H   0  0  0  0  0  0  0  0  0  0  0  0
   -2.3433   -3.6354    2.9953 H   0  0  0  0  0  0  0  0  0  0  0  0
   -1.9596   -4.9010    1.8302 H   0  0  0  0  0  0  0  0  0  0  0  0
   -2.9684   -3.5103    0.0115 H   0  0  0  0  0  0  0  0  0  0  0  0
   -3.4206   -2.3009    1.2165 H   0  0  0  0  0  0  0  0  0  0  0  0
   -4.8223   -3.9614    2.3917 H   0  0  0  0  0  0  0  0  0  0  0  0
   -4.3176   -5.2095    1.2543 H   0  0  0  0  0  0  0  0  0  0  0  0
   -6.5033   -4.4774    0.6034 H   0  0  0  0  0  0  0  0  0  0  0  0
   -5.3646   -3.8987   -0.6113 H   0  0  0  0  0  0  0  0  0  0  0  0
   -5.4265   -1.6356    0.3770 H   0  0  0  0  0  0  0  0  0  0  0  0
   -6.4610   -2.2150    1.6836 H   0  0  0  0  0  0  0  0  0  0  0  0
   -7.1971   -2.2110   -1.2830 H   0  0  0  0  0  0  0  0  0  0  0  0
   -7.7879   -1.0647   -0.0788 H   0  0  0  0  0  0  0  0  0  0  0  0
   -8.2396   -2.7670    0.0259 H   0  0  0  0  0  0  0  0  0  0  0  0
    0.7980    1.2383   -3.2475 H   0  0  0  0  0  0  0  0  0  0  0  0
    3.4806    2.4227   -4.1207 H   0  0  0  0  0  0  0  0  0  0  0  0
    2.2011    1.6607   -5.1914 H   0  0  0  0  0  0  0  0  0  0  0  0
  1  2  2  0  0  0  0
  2  3  1  0  0  0  0
  3  4  2  0  0  0  0
  4  5  4  0  0  0  0
  5  6  1  0  0  0  0
  6  7  1  0  0  0  0
  7  8  1  0  0  0  0
  8  9  1  0  0  0  0
  9 10  1  0  0  0  0
 10 11  1  0  0  0  0
 11 12  1  0  0  0  0
 12 13  1  0  0  0  0
 13 14  1  0  0  0  0
 14 15  1  0  0  0  0
 15 16  1  0  0  0  0
 16 17  1  0  0  0  0
  5 18  4  0  0  0  0
 18 19  1  0  0  0  0
 19 20  2  0  0  0  0
  3 21  1  0  0  0  0
 18 21  1  0  0  0  0
  1 22  1  0  0  0  0
  1 23  1  0  0  0  0
  2 24  1  0  0  0  0
  4 25  1  0  0  0  0
  6 26  1  0  0  0  0
  6 27  1  0  0  0  0
  7 28  1  0  0  0  0
  7 29  1  0  0  0  0
  8 30  1  0  0  0  0
  8 31  1  0  0  0  0
  9 32  1  0  0  0  0
  9 33  1  0  0  0  0
 10 34  1  0  0  0  0
 10 35  1  0  0  0  0
 11 36  1  0  0  0  0
 11 37  1  0  0  0  0
 12 38  1  0  0  0  0
 12 39  1  0  0  0  0
 13 40  1  0  0  0  0
 13 41  1  0  0  0  0
 14 42  1  0  0  0  0
 14 43  1  0  0  0  0
 15 44  1  0  0  0  0
 15 45  1  0  0  0  0
 16 46  1  0  0  0  0
 16 47  1  0  0  0  0
 17 48  1  0  0  0  0
 17 49  1  0  0  0  0
 17 50  1  0  0  0  0
 19 51  1  0  0  0  0
 20 52  1  0  0  0  0
 20 53  1  0  0  0  0
M  END
