
  xtb     02032211363D
 xtb: 6.4.1 (23d549d)
 42 42  0     0  0            999 V2000
   -0.7916    2.9848   -4.6700 C   0  0  0  0  0  0  0  0  0  0  0  0
   -1.1777    3.6134   -3.5666 C   0  0  0  0  0  0  0  0  0  0  0  0
   -1.3386    3.0335   -2.2368 C   0  0  0  0  0  0  0  0  0  0  0  0
   -1.5322    3.8868   -1.1567 C   0  0  0  0  0  0  0  0  0  0  0  0
   -1.6847    3.3906    0.1369 C   0  0  0  0  0  0  0  0  0  0  0  0
   -1.8885    4.2491    1.2990 C   0  0  0  0  0  0  0  0  0  0  0  0
   -2.0096    5.5708    1.3008 C   0  0  0  0  0  0  0  0  0  0  0  0
   -1.6395    2.0142    0.3277 C   0  0  0  0  0  0  0  0  0  0  0  0
   -1.4534    1.1415   -0.7431 C   0  0  0  0  0  0  0  0  0  0  0  0
   -1.4605   -0.1828   -0.4153 O   0  0  0  0  0  0  0  0  0  0  0  0
   -1.1280   -1.1517   -1.3849 C   0  0  0  0  0  0  0  0  0  0  0  0
    0.3718   -1.1993   -1.6962 C   0  0  0  0  0  0  0  0  0  0  0  0
    1.2293   -1.4112   -0.4480 C   0  0  0  0  0  0  0  0  0  0  0  0
    1.0725   -2.7977    0.1716 C   0  0  0  0  0  0  0  0  0  0  0  0
    2.0369   -2.9952    1.3379 C   0  0  0  0  0  0  0  0  0  0  0  0
    1.8596   -4.3593    1.9992 C   0  0  0  0  0  0  0  0  0  0  0  0
    2.8511   -4.5731    3.1271 C   0  0  0  0  0  0  0  0  0  0  0  0
    3.7109   -3.8044    3.4365 O   0  0  0  0  0  0  0  0  0  0  0  0
    2.7014   -5.7408    3.7881 O   0  0  0  0  0  0  0  0  0  0  0  0
   -1.3048    1.6539   -2.0230 C   0  0  0  0  0  0  0  0  0  0  0  0
   -0.6975    3.5065   -5.6070 H   0  0  0  0  0  0  0  0  0  0  0  0
   -0.5460    1.9367   -4.6928 H   0  0  0  0  0  0  0  0  0  0  0  0
   -1.3884    4.6747   -3.6192 H   0  0  0  0  0  0  0  0  0  0  0  0
   -1.5550    4.9512   -1.3309 H   0  0  0  0  0  0  0  0  0  0  0  0
   -1.9464    3.7176    2.2411 H   0  0  0  0  0  0  0  0  0  0  0  0
   -1.9674    6.1633    0.4032 H   0  0  0  0  0  0  0  0  0  0  0  0
   -2.1602    6.1169    2.2163 H   0  0  0  0  0  0  0  0  0  0  0  0
   -1.7567    1.5903    1.3135 H   0  0  0  0  0  0  0  0  0  0  0  0
   -1.7033   -0.9979   -2.3069 H   0  0  0  0  0  0  0  0  0  0  0  0
   -1.4504   -2.0980   -0.9432 H   0  0  0  0  0  0  0  0  0  0  0  0
    0.6690   -0.2573   -2.1615 H   0  0  0  0  0  0  0  0  0  0  0  0
    0.5462   -2.0033   -2.4142 H   0  0  0  0  0  0  0  0  0  0  0  0
    0.9654   -0.6540    0.2925 H   0  0  0  0  0  0  0  0  0  0  0  0
    2.2771   -1.2616   -0.7172 H   0  0  0  0  0  0  0  0  0  0  0  0
    1.2605   -3.5591   -0.5905 H   0  0  0  0  0  0  0  0  0  0  0  0
    0.0495   -2.9259    0.5300 H   0  0  0  0  0  0  0  0  0  0  0  0
    1.8761   -2.2164    2.0848 H   0  0  0  0  0  0  0  0  0  0  0  0
    3.0669   -2.9029    0.9902 H   0  0  0  0  0  0  0  0  0  0  0  0
    2.0050   -5.1557    1.2618 H   0  0  0  0  0  0  0  0  0  0  0  0
    0.8459   -4.4546    2.4013 H   0  0  0  0  0  0  0  0  0  0  0  0
    1.9719   -6.2732    3.4455 H   0  0  0  0  0  0  0  0  0  0  0  0
   -1.1789    0.9994   -2.8691 H   0  0  0  0  0  0  0  0  0  0  0  0
  1  2  2  0  0  0  0
  2  3  1  0  0  0  0
  3  4  4  0  0  0  0
  4  5  4  0  0  0  0
  5  6  1  0  0  0  0
  6  7  2  0  0  0  0
  5  8  4  0  0  0  0
  8  9  4  0  0  0  0
  9 10  1  0  0  0  0
 10 11  1  0  0  0  0
 11 12  1  0  0  0  0
 12 13  1  0  0  0  0
 13 14  1  0  0  0  0
 14 15  1  0  0  0  0
 15 16  1  0  0  0  0
 16 17  1  0  0  0  0
 17 18  2  0  0  0  0
 17 19  1  0  0  0  0
  3 20  4  0  0  0  0
  9 20  4  0  0  0  0
  1 21  1  0  0  0  0
  1 22  1  0  0  0  0
  2 23  1  0  0  0  0
  4 24  1  0  0  0  0
  6 25  1  0  0  0  0
  7 26  1  0  0  0  0
  7 27  1  0  0  0  0
  8 28  1  0  0  0  0
 11 29  1  0  0  0  0
 11 30  1  0  0  0  0
 12 31  1  0  0  0  0
 12 32  1  0  0  0  0
 13 33  1  0  0  0  0
 13 34  1  0  0  0  0
 14 35  1  0  0  0  0
 14 36  1  0  0  0  0
 15 37  1  0  0  0  0
 15 38  1  0  0  0  0
 16 39  1  0  0  0  0
 16 40  1  0  0  0  0
 19 41  1  0  0  0  0
 20 42  1  0  0  0  0
M  END
