
 OpenBabel02012213463D

 18 18  0  0  0  0  0  0  0  0999 V2000
    2.0046   -2.5238    0.0061 C   0  0  0  0  0  0  0  0  0  0  0  0
    1.2675   -1.2171    0.0028 C   0  0  0  0  0  0  0  0  0  0  0  0
    1.9646    0.0024    0.0119 C   0  0  0  0  0  0  0  0  0  0  0  0
    1.2645    1.2202    0.0096 C   0  0  0  0  0  0  0  0  0  0  0  0
    1.9985    2.5287    0.0198 C   0  0  0  0  0  0  0  0  0  0  0  0
   -0.1379    1.2112   -0.0023 C   0  0  0  0  0  0  0  0  0  0  0  0
   -0.8350   -0.0010   -0.0117 C   0  0  0  0  0  0  0  0  0  0  0  0
   -2.5892   -0.0030   -0.0264 Cl  0  0  0  0  0  0  0  0  0  0  0  0
   -0.1349   -1.2114   -0.0090 C   0  0  0  0  0  0  0  0  0  0  0  0
    3.1050   -2.3720    0.0163 H   0  0  0  0  0  0  0  0  0  0  0  0
    1.7387   -3.1045   -0.9022 H   0  0  0  0  0  0  0  0  0  0  0  0
    1.7227   -3.1087    0.9068 H   0  0  0  0  0  0  0  0  0  0  0  0
    3.0480    0.0037    0.0211 H   0  0  0  0  0  0  0  0  0  0  0  0
    3.0992    2.3794    0.0277 H   0  0  0  0  0  0  0  0  0  0  0  0
    1.7163    3.1072    0.9246 H   0  0  0  0  0  0  0  0  0  0  0  0
    1.7301    3.1144   -0.8845 H   0  0  0  0  0  0  0  0  0  0  0  0
   -0.6867    2.1453   -0.0043 H   0  0  0  0  0  0  0  0  0  0  0  0
   -0.6815   -2.1468   -0.0160 H   0  0  0  0  0  0  0  0  0  0  0  0
  1  2  1  0  0  0  0
  1 10  1  0  0  0  0
  1 11  1  0  0  0  0
  1 12  1  0  0  0  0
  2  3  1  0  0  0  0
  2  9  2  0  0  0  0
  3  4  2  0  0  0  0
  3 13  1  0  0  0  0
  4  5  1  0  0  0  0
  4  6  1  0  0  0  0
  5 14  1  0  0  0  0
  5 15  1  0  0  0  0
  5 16  1  0  0  0  0
  6  7  2  0  0  0  0
  6 17  1  0  0  0  0
  7  8  1  0  0  0  0
  7  9  1  0  0  0  0
  9 18  1  0  0  0  0
M  END
