
  xtb     02012213463D
 xtb: 6.4.1 (23d549d)
 18 18  0     0  0            999 V2000
    2.0014   -2.5129    0.0060 c   0  0  0  0  0  0  0  0  0  0  0  0
    1.2619   -1.2095    0.0032 c   0  0  0  0  0  0  0  0  0  0  0  0
    1.9385    0.0024    0.0123 c   0  0  0  0  0  0  0  0  0  0  0  0
    1.2590    1.2126    0.0098 c   0  0  0  0  0  0  0  0  0  0  0  0
    1.9953    2.5178    0.0197 c   0  0  0  0  0  0  0  0  0  0  0  0
   -0.1307    1.2058   -0.0022 c   0  0  0  0  0  0  0  0  0  0  0  0
   -0.8063   -0.0009   -0.0113 c   0  0  0  0  0  0  0  0  0  0  0  0
   -2.5383   -0.0030   -0.0262 cl  0  0  0  0  0  0  0  0  0  0  0  0
   -0.1278   -1.2060   -0.0087 c   0  0  0  0  0  0  0  0  0  0  0  0
    3.0760   -2.3517    0.0157 h   0  0  0  0  0  0  0  0  0  0  0  0
    1.7439   -3.0951   -0.8777 h   0  0  0  0  0  0  0  0  0  0  0  0
    1.7287   -3.1000    0.8818 h   0  0  0  0  0  0  0  0  0  0  0  0
    3.0193    0.0036    0.0216 h   0  0  0  0  0  0  0  0  0  0  0  0
    3.0703    2.3591    0.0272 h   0  0  0  0  0  0  0  0  0  0  0  0
    1.7223    3.0987    0.8995 h   0  0  0  0  0  0  0  0  0  0  0  0
    1.7353    3.1049   -0.8599 h   0  0  0  0  0  0  0  0  0  0  0  0
   -0.6798    2.1345   -0.0044 h   0  0  0  0  0  0  0  0  0  0  0  0
   -0.6746   -2.1360   -0.0160 h   0  0  0  0  0  0  0  0  0  0  0  0
  1  2  1  0  0  0  0
  2  3  4  0  0  0  0
  3  4  4  0  0  0  0
  4  5  1  0  0  0  0
  4  6  4  0  0  0  0
  6  7  4  0  0  0  0
  7  8  1  0  0  0  0
  2  9  4  0  0  0  0
  7  9  4  0  0  0  0
  1 10  1  0  0  0  0
  1 11  1  0  0  0  0
  1 12  1  0  0  0  0
  3 13  1  0  0  0  0
  5 14  1  0  0  0  0
  5 15  1  0  0  0  0
  5 16  1  0  0  0  0
  6 17  1  0  0  0  0
  9 18  1  0  0  0  0
M  END
