
  xtb     02032211353D
 xtb: 6.4.1 (23d549d)
 28 28  0     0  0            999 V2000
    3.2221   -1.5127    0.8471 C   0  0  0  0  0  0  0  0  0  0  0  0
    2.2255   -1.6330   -0.0199 C   0  0  0  0  0  0  0  0  0  0  0  0
    1.0714   -0.7354   -0.0773 C   0  0  0  0  0  0  0  0  0  0  0  0
   -0.1873   -1.3271   -0.2214 C   0  0  0  0  0  0  0  0  0  0  0  0
   -1.3600   -0.6000   -0.1398 C   0  0  0  0  0  0  0  0  0  0  0  0
   -2.6075   -1.1447   -0.2572 O   0  0  0  0  0  0  0  0  0  0  0  0
   -2.7228   -2.5254   -0.4889 C   0  0  0  0  0  0  0  0  0  0  0  0
   -1.2981    0.7912    0.0961 C   0  0  0  0  0  0  0  0  0  0  0  0
   -2.5348    1.5521    0.2090 C   0  0  0  0  0  0  0  0  0  0  0  0
   -2.6512    2.7948    0.6621 C   0  0  0  0  0  0  0  0  0  0  0  0
   -0.0452    1.3814    0.1707 C   0  0  0  0  0  0  0  0  0  0  0  0
    1.1359    0.6546    0.0713 C   0  0  0  0  0  0  0  0  0  0  0  0
    2.2910    1.3982    0.1157 O   0  0  0  0  0  0  0  0  0  0  0  0
    3.3214    1.0949   -0.7987 C   0  0  0  0  0  0  0  0  0  0  0  0
    4.0282   -2.2260    0.8869 H   0  0  0  0  0  0  0  0  0  0  0  0
    3.2539   -0.7074    1.5622 H   0  0  0  0  0  0  0  0  0  0  0  0
    2.1890   -2.4869   -0.6865 H   0  0  0  0  0  0  0  0  0  0  0  0
   -0.2155   -2.3969   -0.3630 H   0  0  0  0  0  0  0  0  0  0  0  0
   -3.7917   -2.7230   -0.5568 H   0  0  0  0  0  0  0  0  0  0  0  0
   -2.3007   -3.1100    0.3352 H   0  0  0  0  0  0  0  0  0  0  0  0
   -2.2419   -2.8196   -1.4278 H   0  0  0  0  0  0  0  0  0  0  0  0
   -3.4192    1.0106   -0.0966 H   0  0  0  0  0  0  0  0  0  0  0  0
   -1.8090    3.3704    1.0064 H   0  0  0  0  0  0  0  0  0  0  0  0
   -3.6095    3.2825    0.7138 H   0  0  0  0  0  0  0  0  0  0  0  0
    0.0424    2.4485    0.2952 H   0  0  0  0  0  0  0  0  0  0  0  0
    3.7685    2.0484   -1.0852 H   0  0  0  0  0  0  0  0  0  0  0  0
    2.9335    0.5947   -1.6894 H   0  0  0  0  0  0  0  0  0  0  0  0
    4.0892    0.4601   -0.3456 H   0  0  0  0  0  0  0  0  0  0  0  0
  1  2  2  0  0  0  0
  2  3  1  0  0  0  0
  3  4  4  0  0  0  0
  4  5  4  0  0  0  0
  5  6  1  0  0  0  0
  6  7  1  0  0  0  0
  5  8  4  0  0  0  0
  8  9  1  0  0  0  0
  9 10  2  0  0  0  0
  8 11  4  0  0  0  0
  3 12  4  0  0  0  0
 11 12  4  0  0  0  0
 12 13  1  0  0  0  0
 13 14  1  0  0  0  0
  1 15  1  0  0  0  0
  1 16  1  0  0  0  0
  2 17  1  0  0  0  0
  4 18  1  0  0  0  0
  7 19  1  0  0  0  0
  7 20  1  0  0  0  0
  7 21  1  0  0  0  0
  9 22  1  0  0  0  0
 10 23  1  0  0  0  0
 10 24  1  0  0  0  0
 11 25  1  0  0  0  0
 14 26  1  0  0  0  0
 14 27  1  0  0  0  0
 14 28  1  0  0  0  0
M  END
