
 OpenBabel02032210523D

 17 17  0  0  0  0  0  0  0  0999 V2000
    1.3214   -0.3139   -0.5936 C   0  0  0  0  0  0  0  0  0  0  0  0
    2.4720   -0.0738    0.0505 C   0  0  0  0  0  0  0  0  0  0  0  0
    3.1592   -1.0842    0.7847 C   0  0  0  0  0  0  0  0  0  0  0  0
    2.8481   -2.4142    0.9900 C   0  0  0  0  0  0  0  0  0  0  0  0
    3.8007   -3.0994    1.7962 C   0  0  0  0  0  0  0  0  0  0  0  0
    4.8448   -2.2951    2.2121 C   0  0  0  0  0  0  0  0  0  0  0  0
    5.9841   -2.5768    3.0199 C   0  0  0  0  0  0  0  0  0  0  0  0
    6.2461   -3.7732    3.5589 C   0  0  0  0  0  0  0  0  0  0  0  0
    5.4389   -4.8387    3.3795 F   0  0  0  0  0  0  0  0  0  0  0  0
    7.3598   -3.9165    4.3114 F   0  0  0  0  0  0  0  0  0  0  0  0
    4.6319   -0.7000    1.5899 S   0  0  0  0  0  0  0  0  0  0  0  0
    0.8250    0.4788   -1.1443 H   0  0  0  0  0  0  0  0  0  0  0  0
    0.8372   -1.2839   -0.6001 H   0  0  0  0  0  0  0  0  0  0  0  0
    2.8944    0.9284    0.0107 H   0  0  0  0  0  0  0  0  0  0  0  0
    1.9679   -2.8947    0.5823 H   0  0  0  0  0  0  0  0  0  0  0  0
    3.7035   -4.1479    2.0520 H   0  0  0  0  0  0  0  0  0  0  0  0
    6.6919   -1.7775    3.2203 H   0  0  0  0  0  0  0  0  0  0  0  0
  1  2  2  0  0  0  0
  1 12  1  0  0  0  0
  1 13  1  0  0  0  0
  2  3  1  0  0  0  0
  2 14  1  0  0  0  0
  3  4  2  0  0  0  0
  3 11  1  0  0  0  0
  4  5  1  0  0  0  0
  4 15  1  0  0  0  0
  5  6  2  0  0  0  0
  5 16  1  0  0  0  0
  6  7  1  0  0  0  0
  6 11  1  0  0  0  0
  7  8  2  0  0  0  0
  7 17  1  0  0  0  0
  8  9  1  0  0  0  0
  8 10  1  0  0  0  0
M  END
