
  xtb     02032211353D
 xtb: 6.4.1 (23d549d)
 21 21  0     0  0            999 V2000
    3.5891    0.1914    0.0733 C   0  0  0  0  0  0  0  0  0  0  0  0
    2.3436    0.5560   -0.2058 C   0  0  0  0  0  0  0  0  0  0  0  0
    1.1674   -0.3016   -0.0971 C   0  0  0  0  0  0  0  0  0  0  0  0
    1.2638   -1.6905   -0.1059 C   0  0  0  0  0  0  0  0  0  0  0  0
    0.1352   -2.4790    0.0209 C   0  0  0  0  0  0  0  0  0  0  0  0
   -1.1135   -1.8981    0.1425 C   0  0  0  0  0  0  0  0  0  0  0  0
   -1.2655   -0.5136    0.1172 C   0  0  0  0  0  0  0  0  0  0  0  0
   -2.6140    0.0432    0.2004 C   0  0  0  0  0  0  0  0  0  0  0  0
   -3.0393    1.1434   -0.4051 C   0  0  0  0  0  0  0  0  0  0  0  0
   -0.1116    0.2813    0.0108 C   0  0  0  0  0  0  0  0  0  0  0  0
   -0.1972    1.6897    0.0907 C   0  0  0  0  0  0  0  0  0  0  0  0
   -0.2142    2.8341    0.1816 N   0  0  0  0  0  0  0  0  0  0  0  0
    4.4077    0.8826   -0.0270 H   0  0  0  0  0  0  0  0  0  0  0  0
    3.8428   -0.7942    0.4258 H   0  0  0  0  0  0  0  0  0  0  0  0
    2.1468    1.5736   -0.5180 H   0  0  0  0  0  0  0  0  0  0  0  0
    2.2306   -2.1548   -0.2204 H   0  0  0  0  0  0  0  0  0  0  0  0
    0.2291   -3.5550    0.0227 H   0  0  0  0  0  0  0  0  0  0  0  0
   -1.9919   -2.5197    0.2377 H   0  0  0  0  0  0  0  0  0  0  0  0
   -3.3121   -0.5568    0.7721 H   0  0  0  0  0  0  0  0  0  0  0  0
   -2.3991    1.7493   -1.0227 H   0  0  0  0  0  0  0  0  0  0  0  0
   -4.0596    1.4736   -0.3102 H   0  0  0  0  0  0  0  0  0  0  0  0
  1  2  2  0  0  0  0
  2  3  1  0  0  0  0
  3  4  4  0  0  0  0
  4  5  4  0  0  0  0
  5  6  4  0  0  0  0
  6  7  4  0  0  0  0
  7  8  1  0  0  0  0
  8  9  2  0  0  0  0
  3 10  4  0  0  0  0
  7 10  4  0  0  0  0
 10 11  1  0  0  0  0
 11 12  3  0  0  0  0
  1 13  1  0  0  0  0
  1 14  1  0  0  0  0
  2 15  1  0  0  0  0
  4 16  1  0  0  0  0
  5 17  1  0  0  0  0
  6 18  1  0  0  0  0
  8 19  1  0  0  0  0
  9 20  1  0  0  0  0
  9 21  1  0  0  0  0
M  END
