
 OpenBabel02012213593D

 18 18  0  0  0  0  0  0  0  0999 V2000
    1.0251    0.0135    0.0734 C   0  0  0  0  0  0  0  0  0  0  0  0
    2.5239    0.0549    0.0754 C   0  0  0  0  0  0  0  0  0  0  0  0
    3.2113    1.2780    0.0733 C   0  0  0  0  0  0  0  0  0  0  0  0
    4.6138    1.3102    0.0739 C   0  0  0  0  0  0  0  0  0  0  0  0
    5.3547    2.6132    0.0706 C   0  0  0  0  0  0  0  0  0  0  0  0
    5.3188    0.1021    0.0779 C   0  0  0  0  0  0  0  0  0  0  0  0
    6.6605    0.1192    0.0782 F   0  0  0  0  0  0  0  0  0  0  0  0
    4.6482   -1.1146    0.0798 C   0  0  0  0  0  0  0  0  0  0  0  0
    5.3391   -2.2643    0.0833 F   0  0  0  0  0  0  0  0  0  0  0  0
    3.2589   -1.1354    0.0786 C   0  0  0  0  0  0  0  0  0  0  0  0
    2.6143   -2.3114    0.0803 F   0  0  0  0  0  0  0  0  0  0  0  0
    0.5987    1.0222    0.0740 H   0  0  0  0  0  0  0  0  0  0  0  0
    0.6593   -0.5043    0.9656 H   0  0  0  0  0  0  0  0  0  0  0  0
    0.6619   -0.5024   -0.8208 H   0  0  0  0  0  0  0  0  0  0  0  0
    2.6503    2.2117    0.0705 H   0  0  0  0  0  0  0  0  0  0  0  0
    4.6656    3.4643    0.0677 H   0  0  0  0  0  0  0  0  0  0  0  0
    5.9829    2.6886   -0.8226 H   0  0  0  0  0  0  0  0  0  0  0  0
    5.9823    2.6940    0.9637 H   0  0  0  0  0  0  0  0  0  0  0  0
  1  2  1  0  0  0  0
  1 12  1  0  0  0  0
  1 13  1  0  0  0  0
  1 14  1  0  0  0  0
  2  3  1  0  0  0  0
  2 10  2  0  0  0  0
  3  4  2  0  0  0  0
  3 15  1  0  0  0  0
  4  5  1  0  0  0  0
  4  6  1  0  0  0  0
  5 16  1  0  0  0  0
  5 17  1  0  0  0  0
  5 18  1  0  0  0  0
  6  7  1  0  0  0  0
  6  8  2  0  0  0  0
  8  9  1  0  0  0  0
  8 10  1  0  0  0  0
 10 11  1  0  0  0  0
M  END
