
  xtb     02032211353D
 xtb: 6.4.1 (23d549d)
 17 17  0     0  0            999 V2000
    2.0754    1.8611   -0.2836 C   0  0  0  0  0  0  0  0  0  0  0  0
    2.0034    0.6386    0.2279 C   0  0  0  0  0  0  0  0  0  0  0  0
    0.8717   -0.2592    0.1268 C   0  0  0  0  0  0  0  0  0  0  0  0
    0.9660   -1.6790    0.0922 C   0  0  0  0  0  0  0  0  0  0  0  0
   -0.3031   -2.1436   -0.0393 C   0  0  0  0  0  0  0  0  0  0  0  0
   -1.1822   -1.1317   -0.0737 O   0  0  0  0  0  0  0  0  0  0  0  0
   -0.4818    0.0239    0.0290 C   0  0  0  0  0  0  0  0  0  0  0  0
   -1.1925    1.2737    0.1012 C   0  0  0  0  0  0  0  0  0  0  0  0
   -2.4966    1.4042   -0.1287 C   0  0  0  0  0  0  0  0  0  0  0  0
    2.9604    2.4639   -0.1715 H   0  0  0  0  0  0  0  0  0  0  0  0
    1.2688    2.2948   -0.8493 H   0  0  0  0  0  0  0  0  0  0  0  0
    2.8620    0.2207    0.7397 H   0  0  0  0  0  0  0  0  0  0  0  0
    1.8651   -2.2589    0.1430 H   0  0  0  0  0  0  0  0  0  0  0  0
   -0.6980   -3.1380   -0.1127 H   0  0  0  0  0  0  0  0  0  0  0  0
   -0.5889    2.1248    0.3811 H   0  0  0  0  0  0  0  0  0  0  0  0
   -3.1021    0.5605   -0.4123 H   0  0  0  0  0  0  0  0  0  0  0  0
   -2.9923    2.3549   -0.0431 H   0  0  0  0  0  0  0  0  0  0  0  0
  1  2  2  0  0  0  0
  2  3  1  0  0  0  0
  3  4  4  0  0  0  0
  4  5  2  0  0  0  0
  5  6  1  0  0  0  0
  3  7  4  0  0  0  0
  6  7  1  0  0  0  0
  7  8  1  0  0  0  0
  8  9  2  0  0  0  0
  1 10  1  0  0  0  0
  1 11  1  0  0  0  0
  2 12  1  0  0  0  0
  4 13  1  0  0  0  0
  5 14  1  0  0  0  0
  8 15  1  0  0  0  0
  9 16  1  0  0  0  0
  9 17  1  0  0  0  0
M  END
