
  xtb     02032211353D
 xtb: 6.4.1 (23d549d)
 23 23  0     0  0            999 V2000
   -3.1027   -1.1328    0.0947 C   0  0  0  0  0  0  0  0  0  0  0  0
   -1.7901   -1.2949   -0.0366 C   0  0  0  0  0  0  0  0  0  0  0  0
   -0.7792   -0.2649    0.0018 C   0  0  0  0  0  0  0  0  0  0  0  0
   -0.9054    1.1439   -0.0477 C   0  0  0  0  0  0  0  0  0  0  0  0
   -2.1216    1.9938   -0.1368 C   0  0  0  0  0  0  0  0  0  0  0  0
    0.2889    1.7095   -0.0188 N   0  0  0  0  0  0  0  0  0  0  0  0
    1.1917    0.7336    0.0348 N   0  0  0  0  0  0  0  0  0  0  0  0
    2.5749    1.0917    0.1467 C   0  0  0  0  0  0  0  0  0  0  0  0
    0.6073   -0.4906    0.0503 C   0  0  0  0  0  0  0  0  0  0  0  0
    1.2890   -1.7582    0.1377 C   0  0  0  0  0  0  0  0  0  0  0  0
    2.5372   -2.0417   -0.2233 C   0  0  0  0  0  0  0  0  0  0  0  0
   -3.7706   -1.9765    0.0472 H   0  0  0  0  0  0  0  0  0  0  0  0
   -3.5602   -0.1756    0.2615 H   0  0  0  0  0  0  0  0  0  0  0  0
   -1.4060   -2.2964   -0.1901 H   0  0  0  0  0  0  0  0  0  0  0  0
   -2.7517    1.6743   -0.9653 H   0  0  0  0  0  0  0  0  0  0  0  0
   -1.8164    3.0253   -0.2929 H   0  0  0  0  0  0  0  0  0  0  0  0
   -2.7000    1.9360    0.7848 H   0  0  0  0  0  0  0  0  0  0  0  0
    2.6133    2.1355    0.4549 H   0  0  0  0  0  0  0  0  0  0  0  0
    3.0879    0.9921   -0.8130 H   0  0  0  0  0  0  0  0  0  0  0  0
    3.0705    0.4675    0.8907 H   0  0  0  0  0  0  0  0  0  0  0  0
    0.6712   -2.5555    0.5316 H   0  0  0  0  0  0  0  0  0  0  0  0
    3.2050   -1.3243   -0.6644 H   0  0  0  0  0  0  0  0  0  0  0  0
    2.9273   -3.0387   -0.1094 H   0  0  0  0  0  0  0  0  0  0  0  0
  1  2  2  0  0  0  0
  2  3  1  0  0  0  0
  3  4  4  0  0  0  0
  4  5  1  0  0  0  0
  4  6  4  0  0  0  0
  6  7  1  0  0  0  0
  7  8  1  0  0  0  0
  3  9  4  0  0  0  0
  7  9  4  0  0  0  0
  9 10  1  0  0  0  0
 10 11  2  0  0  0  0
  1 12  1  0  0  0  0
  1 13  1  0  0  0  0
  2 14  1  0  0  0  0
  5 15  1  0  0  0  0
  5 16  1  0  0  0  0
  5 17  1  0  0  0  0
  8 18  1  0  0  0  0
  8 19  1  0  0  0  0
  8 20  1  0  0  0  0
 10 21  1  0  0  0  0
 11 22  1  0  0  0  0
 11 23  1  0  0  0  0
M  END
