
  xtb     02032211293D
 xtb: 6.4.1 (23d549d)
 28 28  0     0  0            999 V2000
    1.7739    0.6830   -0.3567 c   0  0  0  0  0  0  0  0  0  0  0  0
    2.8464   -0.0234   -0.0195 c   0  0  0  0  0  0  0  0  0  0  0  0
    3.4611   -1.0870   -0.8019 c   0  0  0  0  0  0  0  0  0  0  0  0
    3.0211   -1.4721   -2.0590 c   0  0  0  0  0  0  0  0  0  0  0  0
    3.6279   -2.4982   -2.7793 c   0  0  0  0  0  0  0  0  0  0  0  0
    3.1314   -2.8349   -4.1185 c   0  0  0  0  0  0  0  0  0  0  0  0
    3.5815   -3.7040   -4.8442 o   0  0  0  0  0  0  0  0  0  0  0  0
    2.0999   -2.0670   -4.5059 o   0  0  0  0  0  0  0  0  0  0  0  0
    1.5806   -2.3368   -5.7975 c   0  0  0  0  0  0  0  0  0  0  0  0
    4.7342   -3.1918   -2.2295 c   0  0  0  0  0  0  0  0  0  0  0  0
    5.3314   -4.1895   -2.9101 n   0  0  0  0  0  0  0  0  0  0  0  0
    5.2046   -2.8172   -0.9455 c   0  0  0  0  0  0  0  0  0  0  0  0
    6.3198   -3.5486   -0.3336 c   0  0  0  0  0  0  0  0  0  0  0  0
    7.3068   -3.0001    0.3592 c   0  0  0  0  0  0  0  0  0  0  0  0
    4.5631   -1.7855   -0.2841 c   0  0  0  0  0  0  0  0  0  0  0  0
    4.9951   -1.4496    0.9507 f   0  0  0  0  0  0  0  0  0  0  0  0
    1.3911    1.4528    0.2905 h   0  0  0  0  0  0  0  0  0  0  0  0
    1.2361    0.5285   -1.2761 h   0  0  0  0  0  0  0  0  0  0  0  0
    3.3337    0.1822    0.9245 h   0  0  0  0  0  0  0  0  0  0  0  0
    2.1842   -0.9654   -2.5081 h   0  0  0  0  0  0  0  0  0  0  0  0
    0.7711   -1.6282   -5.9524 h   0  0  0  0  0  0  0  0  0  0  0  0
    1.2090   -3.3623   -5.8525 h   0  0  0  0  0  0  0  0  0  0  0  0
    2.3561   -2.2050   -6.5552 h   0  0  0  0  0  0  0  0  0  0  0  0
    4.9917   -4.3837   -3.8427 h   0  0  0  0  0  0  0  0  0  0  0  0
    6.1999   -4.5740   -2.5883 h   0  0  0  0  0  0  0  0  0  0  0  0
    6.2955   -4.6236   -0.4711 h   0  0  0  0  0  0  0  0  0  0  0  0
    7.3784   -1.9378    0.5138 h   0  0  0  0  0  0  0  0  0  0  0  0
    8.0844   -3.6010    0.7990 h   0  0  0  0  0  0  0  0  0  0  0  0
  1  2  2  0  0  0  0
  2  3  1  0  0  0  0
  3  4  4  0  0  0  0
  4  5  4  0  0  0  0
  5  6  1  0  0  0  0
  6  7  2  0  0  0  0
  6  8  1  0  0  0  0
  8  9  1  0  0  0  0
  5 10  4  0  0  0  0
 10 11  4  0  0  0  0
 10 12  4  0  0  0  0
 12 13  1  0  0  0  0
 13 14  2  0  0  0  0
  3 15  4  0  0  0  0
 12 15  4  0  0  0  0
 15 16  1  0  0  0  0
  1 17  1  0  0  0  0
  1 18  1  0  0  0  0
  2 19  1  0  0  0  0
  4 20  1  0  0  0  0
  9 21  1  0  0  0  0
  9 22  1  0  0  0  0
  9 23  1  0  0  0  0
 11 24  1  0  0  0  0
 11 25  1  0  0  0  0
 13 26  1  0  0  0  0
 14 27  1  0  0  0  0
 14 28  1  0  0  0  0
M  END
