28

C          2.44280       -0.12420        0.62140
C          0.98640       -0.05090        0.22690
C          0.23460       -1.24080        0.25620
C         -1.12340       -1.23630       -0.05650
C         -1.75490       -0.04560       -0.40000
C         -1.03270        1.14720       -0.42950
C          0.34140        1.17450       -0.11830
C          1.06790        2.48260       -0.16660
C          2.43923        2.48753       -0.49079
C          3.16147        3.67913       -0.55003
C          2.53299        4.89111       -0.28421
C          1.17741        4.91790        0.03913
C          0.42572        3.72908        0.09869
C         -1.02708        3.82978        0.49961
H          2.73350       -1.15290        0.92350
H          2.62900        0.54850        1.48470
H          3.10910        0.15070       -0.21480
H          0.69930       -2.18120        0.52660
H         -1.68760       -2.15980       -0.03190
H         -2.80850       -0.04570       -0.64840
H         -1.55160        2.04740       -0.72450
H          2.95593        1.56898       -0.72732
H          4.21317        3.66187       -0.80688
H          3.09707        5.81394       -0.32824
H          0.71503        5.87478        0.24800
H         -1.31555        4.87696        0.73260
H         -1.20569        3.21837        1.40898
H         -1.70061        3.49798       -0.30967
28

C          2.44280       -0.12420        0.62140
C          0.98640       -0.05090        0.22690
C          0.23460       -1.24080        0.25620
C         -1.12340       -1.23630       -0.05650
C         -1.75490       -0.04560       -0.40000
C         -1.03270        1.14720       -0.42950
C          0.34140        1.17450       -0.11830
C          1.06790        2.48260       -0.16660
C          2.44296        2.50876        0.14030
C          3.16578        3.70108        0.10905
C          2.53268        4.89344       -0.22564
C          1.17343        4.89894       -0.53424
C          0.42408        3.70729       -0.51605
C         -1.05344        3.79580       -0.81705
H          2.73350       -1.15290        0.92350
H          2.62900        0.54850        1.48470
H          3.10910        0.15070       -0.21480
H          0.69930       -2.18120        0.52660
H         -1.68760       -2.15980       -0.03190
H         -2.80850       -0.04570       -0.64840
H         -1.55160        2.04740       -0.72450
H          2.97434        1.59967        0.38086
H          4.22308        3.69881        0.34240
H          3.09593        5.81760       -0.24619
H          0.70446        5.84252       -0.78481
H         -1.37280        4.84501       -0.99385
H         -1.63327        3.40550        0.04559
H         -1.32125        3.23486       -1.72936
28

C          2.44280       -0.12420        0.62140
C          0.98640       -0.05090        0.22690
C          0.23460       -1.24080        0.25620
C         -1.12340       -1.23630       -0.05650
C         -1.75490       -0.04560       -0.40000
C         -1.03270        1.14720       -0.42950
C          0.34140        1.17450       -0.11830
C          1.06790        2.48260       -0.16660
C          2.17310        2.67876        0.68529
C          2.88430        3.87843        0.67845
C          2.50707        4.90952       -0.17543
C          1.41808        4.74477       -1.02971
C          0.68871        3.54076       -1.04580
C         -0.50672        3.44980       -1.96458
H          2.73350       -1.15290        0.92350
H          2.62900        0.54850        1.48470
H          3.10910        0.15070       -0.21480
H          0.69930       -2.18120        0.52660
H         -1.68760       -2.15980       -0.03190
H         -2.80850       -0.04570       -0.64840
H         -1.55160        2.04740       -0.72450
H          2.51088        1.89266        1.34454
H          3.73436        4.00695        1.33665
H          3.05942        5.84046       -0.17625
H          1.14218        5.56639       -1.67923
H         -0.67585        4.40190       -2.51137
H         -1.41857        3.23402       -1.36905
H         -0.37373        2.67146       -2.73607
