
 OpenBabel02012213503D

 28 29  0  0  0  0  0  0  0  0999 V2000
    2.4888   -0.2298    0.4640 C   0  0  0  0  0  0  0  0  0  0  0  0
    1.0111   -0.0849    0.2018 C   0  0  0  0  0  0  0  0  0  0  0  0
    0.2625   -1.2825    0.2060 C   0  0  0  0  0  0  0  0  0  0  0  0
   -1.1131   -1.2763    0.0056 C   0  0  0  0  0  0  0  0  0  0  0  0
   -1.7580   -0.0807   -0.2397 C   0  0  0  0  0  0  0  0  0  0  0  0
   -1.0233    1.1053   -0.2996 C   0  0  0  0  0  0  0  0  0  0  0  0
    0.3629    1.1606   -0.0488 C   0  0  0  0  0  0  0  0  0  0  0  0
    1.0691    2.4849   -0.0917 C   0  0  0  0  0  0  0  0  0  0  0  0
    2.2620    2.6093   -0.8401 C   0  0  0  0  0  0  0  0  0  0  0  0
    2.9998    3.7922   -0.8944 C   0  0  0  0  0  0  0  0  0  0  0  0
    2.5345    4.9266   -0.2581 C   0  0  0  0  0  0  0  0  0  0  0  0
    1.3330    4.8692    0.4424 C   0  0  0  0  0  0  0  0  0  0  0  0
    0.5998    3.6649    0.5523 C   0  0  0  0  0  0  0  0  0  0  0  0
   -0.6640    3.7356    1.3732 C   0  0  0  0  0  0  0  0  0  0  0  0
    2.7377   -1.2478    0.7909 H   0  0  0  0  0  0  0  0  0  0  0  0
    2.8144    0.4478    1.2593 H   0  0  0  0  0  0  0  0  0  0  0  0
    3.0708   -0.0638   -0.4459 H   0  0  0  0  0  0  0  0  0  0  0  0
    0.7548   -2.2394    0.3753 H   0  0  0  0  0  0  0  0  0  0  0  0
   -1.6767   -2.2090    0.0414 H   0  0  0  0  0  0  0  0  0  0  0  0
   -2.8354   -0.0602   -0.3946 H   0  0  0  0  0  0  0  0  0  0  0  0
   -1.5650    2.0106   -0.5677 H   0  0  0  0  0  0  0  0  0  0  0  0
    2.6344    1.7636   -1.4108 H   0  0  0  0  0  0  0  0  0  0  0  0
    3.9378    3.8205   -1.4453 H   0  0  0  0  0  0  0  0  0  0  0  0
    3.0949    5.8590   -0.3094 H   0  0  0  0  0  0  0  0  0  0  0  0
    0.9701    5.7778    0.9158 H   0  0  0  0  0  0  0  0  0  0  0  0
   -0.7616    4.7077    1.8722 H   0  0  0  0  0  0  0  0  0  0  0  0
   -0.6586    2.9727    2.1579 H   0  0  0  0  0  0  0  0  0  0  0  0
   -1.5548    3.6416    0.7423 H   0  0  0  0  0  0  0  0  0  0  0  0
  1  2  1  0  0  0  0
  1 15  1  0  0  0  0
  1 16  1  0  0  0  0
  1 17  1  0  0  0  0
  2  3  1  0  0  0  0
  2  7  2  0  0  0  0
  3  4  2  0  0  0  0
  3 18  1  0  0  0  0
  4  5  1  0  0  0  0
  4 19  1  0  0  0  0
  5  6  2  0  0  0  0
  5 20  1  0  0  0  0
  6  7  1  0  0  0  0
  6 21  1  0  0  0  0
  7  8  1  0  0  0  0
  8  9  1  0  0  0  0
  8 13  2  0  0  0  0
  9 10  2  0  0  0  0
  9 22  1  0  0  0  0
 10 11  1  0  0  0  0
 10 23  1  0  0  0  0
 11 12  2  0  0  0  0
 11 24  1  0  0  0  0
 12 13  1  0  0  0  0
 12 25  1  0  0  0  0
 13 14  1  0  0  0  0
 14 26  1  0  0  0  0
 14 27  1  0  0  0  0
 14 28  1  0  0  0  0
M  END
