
 OpenBabel02012213503D

 28 29  0  0  0  0  0  0  0  0999 V2000
    2.4428   -0.1242    0.6214 C   0  0  0  0  0  0  0  0  0  0  0  0
    0.9864   -0.0509    0.2269 C   0  0  0  0  0  0  0  0  0  0  0  0
    0.2346   -1.2408    0.2562 C   0  0  0  0  0  0  0  0  0  0  0  0
   -1.1234   -1.2363   -0.0565 C   0  0  0  0  0  0  0  0  0  0  0  0
   -1.7549   -0.0456   -0.4000 C   0  0  0  0  0  0  0  0  0  0  0  0
   -1.0327    1.1472   -0.4295 C   0  0  0  0  0  0  0  0  0  0  0  0
    0.3414    1.1745   -0.1183 C   0  0  0  0  0  0  0  0  0  0  0  0
    1.0679    2.4826   -0.1666 C   0  0  0  0  0  0  0  0  0  0  0  0
    2.2241    2.5895   -0.9650 C   0  0  0  0  0  0  0  0  0  0  0  0
    2.9365    3.7858   -1.0451 C   0  0  0  0  0  0  0  0  0  0  0  0
    2.5135    4.9003   -0.3285 C   0  0  0  0  0  0  0  0  0  0  0  0
    1.3733    4.8250    0.4697 C   0  0  0  0  0  0  0  0  0  0  0  0
    0.6338    3.6306    0.5615 C   0  0  0  0  0  0  0  0  0  0  0  0
   -0.5645    3.6091    1.4808 C   0  0  0  0  0  0  0  0  0  0  0  0
    2.7335   -1.1529    0.9235 H   0  0  0  0  0  0  0  0  0  0  0  0
    2.6290    0.5485    1.4847 H   0  0  0  0  0  0  0  0  0  0  0  0
    3.1091    0.1507   -0.2148 H   0  0  0  0  0  0  0  0  0  0  0  0
    0.6993   -2.1812    0.5266 H   0  0  0  0  0  0  0  0  0  0  0  0
   -1.6876   -2.1598   -0.0319 H   0  0  0  0  0  0  0  0  0  0  0  0
   -2.8085   -0.0457   -0.6484 H   0  0  0  0  0  0  0  0  0  0  0  0
   -1.5516    2.0474   -0.7245 H   0  0  0  0  0  0  0  0  0  0  0  0
    2.5694    1.7531   -1.5548 H   0  0  0  0  0  0  0  0  0  0  0  0
    3.8191    3.8489   -1.6691 H   0  0  0  0  0  0  0  0  0  0  0  0
    3.0703    5.8265   -0.3906 H   0  0  0  0  0  0  0  0  0  0  0  0
    1.0704    5.7060    1.0221 H   0  0  0  0  0  0  0  0  0  0  0  0
   -0.6922    4.5779    2.0092 H   0  0  0  0  0  0  0  0  0  0  0  0
   -0.4304    2.8188    2.2490 H   0  0  0  0  0  0  0  0  0  0  0  0
   -1.5037    3.4343    0.9276 H   0  0  0  0  0  0  0  0  0  0  0  0
  1  2  1  0  0  0  0
  1 15  1  0  0  0  0
  1 16  1  0  0  0  0
  1 17  1  0  0  0  0
  2  3  1  0  0  0  0
  2  7  2  0  0  0  0
  3  4  2  0  0  0  0
  3 18  1  0  0  0  0
  4  5  1  0  0  0  0
  4 19  1  0  0  0  0
  5  6  2  0  0  0  0
  5 20  1  0  0  0  0
  6  7  1  0  0  0  0
  6 21  1  0  0  0  0
  7  8  1  0  0  0  0
  8  9  1  0  0  0  0
  8 13  2  0  0  0  0
  9 10  2  0  0  0  0
  9 22  1  0  0  0  0
 10 11  1  0  0  0  0
 10 23  1  0  0  0  0
 11 12  2  0  0  0  0
 11 24  1  0  0  0  0
 12 13  1  0  0  0  0
 12 25  1  0  0  0  0
 13 14  1  0  0  0  0
 14 26  1  0  0  0  0
 14 27  1  0  0  0  0
 14 28  1  0  0  0  0
M  END
