20

C          1.07740       -0.08190        0.16820
C          2.56850       -0.09200        0.00160
C          3.29260        1.10590       -0.04850
C          4.67980        1.08410       -0.20250
C          5.36990       -0.13550       -0.31010
C          6.86600       -0.12220       -0.47410
C          4.64270       -1.34950       -0.26140
N          5.29090       -2.60990       -0.36650
C          3.24750       -1.31290       -0.10540
H          0.68130        0.95360        0.23750
H          0.80230       -0.62570        1.09640
H          0.60120       -0.58260       -0.70110
H          2.78540        2.05940        0.03230
H          5.21580        2.02450       -0.23760
H          7.26900        0.91280       -0.49100
H          7.14400       -0.61430       -1.42980
H          7.34120       -0.66120        0.37230
H          6.31040       -2.68890       -0.48290
H          4.74410       -3.48260       -0.32940
H          2.68710       -2.23970       -0.06710
