
  xtb     02032211353D
 xtb: 6.4.1 (23d549d)
 26 26  0     0  0            999 V2000
    3.5543   -1.2141   -0.1106 C   0  0  0  0  0  0  0  0  0  0  0  0
    2.8559   -0.1529    0.2708 C   0  0  0  0  0  0  0  0  0  0  0  0
    1.4118    0.0043    0.1104 C   0  0  0  0  0  0  0  0  0  0  0  0
    0.5708   -1.1031    0.1539 C   0  0  0  0  0  0  0  0  0  0  0  0
   -0.8068   -1.0102    0.0291 C   0  0  0  0  0  0  0  0  0  0  0  0
   -1.6183   -2.2714    0.0592 C   0  0  0  0  0  0  0  0  0  0  0  0
   -1.3755    0.2556   -0.1534 C   0  0  0  0  0  0  0  0  0  0  0  0
   -2.8118    0.5066   -0.2844 C   0  0  0  0  0  0  0  0  0  0  0  0
   -3.7811   -0.0642    0.4170 C   0  0  0  0  0  0  0  0  0  0  0  0
   -0.5286    1.3624   -0.2323 C   0  0  0  0  0  0  0  0  0  0  0  0
    0.8427    1.2706   -0.0900 C   0  0  0  0  0  0  0  0  0  0  0  0
    1.6926    2.5031   -0.1819 C   0  0  0  0  0  0  0  0  0  0  0  0
    4.6186   -1.2746    0.0418 H   0  0  0  0  0  0  0  0  0  0  0  0
    3.0976   -2.0551   -0.6049 H   0  0  0  0  0  0  0  0  0  0  0  0
    3.3718    0.6801    0.7304 H   0  0  0  0  0  0  0  0  0  0  0  0
    1.0093   -2.0783    0.3107 H   0  0  0  0  0  0  0  0  0  0  0  0
   -1.0310   -3.1029   -0.3258 H   0  0  0  0  0  0  0  0  0  0  0  0
   -2.5219   -2.1702   -0.5371 H   0  0  0  0  0  0  0  0  0  0  0  0
   -1.9082   -2.5165    1.0812 H   0  0  0  0  0  0  0  0  0  0  0  0
   -3.0666    1.2826   -0.9978 H   0  0  0  0  0  0  0  0  0  0  0  0
   -3.5882   -0.7972    1.1802 H   0  0  0  0  0  0  0  0  0  0  0  0
   -4.8132    0.2084    0.2711 H   0  0  0  0  0  0  0  0  0  0  0  0
   -0.9730    2.3356   -0.3944 H   0  0  0  0  0  0  0  0  0  0  0  0
    1.0852    3.3663   -0.4432 H   0  0  0  0  0  0  0  0  0  0  0  0
    2.4680    2.3821   -0.9371 H   0  0  0  0  0  0  0  0  0  0  0  0
    2.1797    2.7062    0.7722 H   0  0  0  0  0  0  0  0  0  0  0  0
  1  2  2  0  0  0  0
  2  3  1  0  0  0  0
  3  4  4  0  0  0  0
  4  5  4  0  0  0  0
  5  6  1  0  0  0  0
  5  7  4  0  0  0  0
  7  8  1  0  0  0  0
  8  9  2  0  0  0  0
  7 10  4  0  0  0  0
  3 11  4  0  0  0  0
 10 11  4  0  0  0  0
 11 12  1  0  0  0  0
  1 13  1  0  0  0  0
  1 14  1  0  0  0  0
  2 15  1  0  0  0  0
  4 16  1  0  0  0  0
  6 17  1  0  0  0  0
  6 18  1  0  0  0  0
  6 19  1  0  0  0  0
  8 20  1  0  0  0  0
  9 21  1  0  0  0  0
  9 22  1  0  0  0  0
 10 23  1  0  0  0  0
 12 24  1  0  0  0  0
 12 25  1  0  0  0  0
 12 26  1  0  0  0  0
M  END
