
 OpenBabel02032210533D

 26 26  0  0  0  0  0  0  0  0999 V2000
    2.7059    1.2379   -0.3409 C   0  0  0  0  0  0  0  0  0  0  0  0
    2.1956    0.0117   -0.1566 C   0  0  0  0  0  0  0  0  0  0  0  0
    2.9920   -1.2579   -0.0688 C   0  0  0  0  0  0  0  0  0  0  0  0
    4.3992   -1.2471   -0.1246 C   0  0  0  0  0  0  0  0  0  0  0  0
    5.1515   -2.4312   -0.0428 C   0  0  0  0  0  0  0  0  0  0  0  0
    6.6570   -2.3303   -0.1060 C   0  0  0  0  0  0  0  0  0  0  0  0
    4.4944   -3.6777    0.0992 C   0  0  0  0  0  0  0  0  0  0  0  0
    5.2903   -4.9476    0.1882 C   0  0  0  0  0  0  0  0  0  0  0  0
    4.7793   -6.1731    0.3774 C   0  0  0  0  0  0  0  0  0  0  0  0
    3.0869   -3.6885    0.1546 C   0  0  0  0  0  0  0  0  0  0  0  0
    2.3340   -2.5053    0.0733 C   0  0  0  0  0  0  0  0  0  0  0  0
    0.8290   -2.6054    0.1355 C   0  0  0  0  0  0  0  0  0  0  0  0
    2.0356    2.0903   -0.3909 H   0  0  0  0  0  0  0  0  0  0  0  0
    3.7624    1.4375   -0.4501 H   0  0  0  0  0  0  0  0  0  0  0  0
    1.1161   -0.0361   -0.0710 H   0  0  0  0  0  0  0  0  0  0  0  0
    4.9361   -0.3183   -0.2285 H   0  0  0  0  0  0  0  0  0  0  0  0
    7.0028   -1.2799   -0.2094 H   0  0  0  0  0  0  0  0  0  0  0  0
    7.0369   -2.8979   -0.9812 H   0  0  0  0  0  0  0  0  0  0  0  0
    7.1002   -2.7398    0.8262 H   0  0  0  0  0  0  0  0  0  0  0  0
    6.3695   -4.9006    0.1000 H   0  0  0  0  0  0  0  0  0  0  0  0
    3.7230   -6.3715    0.4904 H   0  0  0  0  0  0  0  0  0  0  0  0
    5.4490   -7.0259    0.4282 H   0  0  0  0  0  0  0  0  0  0  0  0
    2.5496   -4.6173    0.2588 H   0  0  0  0  0  0  0  0  0  0  0  0
    0.4831   -3.6559    0.2383 H   0  0  0  0  0  0  0  0  0  0  0  0
    0.3864   -2.1956   -0.7970 H   0  0  0  0  0  0  0  0  0  0  0  0
    0.4484   -2.0382    1.0105 H   0  0  0  0  0  0  0  0  0  0  0  0
  1  2  2  0  0  0  0
  1 13  1  0  0  0  0
  1 14  1  0  0  0  0
  2  3  1  0  0  0  0
  2 15  1  0  0  0  0
  3  4  1  0  0  0  0
  3 11  2  0  0  0  0
  4  5  2  0  0  0  0
  4 16  1  0  0  0  0
  5  6  1  0  0  0  0
  5  7  1  0  0  0  0
  6 17  1  0  0  0  0
  6 18  1  0  0  0  0
  6 19  1  0  0  0  0
  7  8  1  0  0  0  0
  7 10  2  0  0  0  0
  8  9  2  0  0  0  0
  8 20  1  0  0  0  0
  9 21  1  0  0  0  0
  9 22  1  0  0  0  0
 10 11  1  0  0  0  0
 10 23  1  0  0  0  0
 11 12  1  0  0  0  0
 12 24  1  0  0  0  0
 12 25  1  0  0  0  0
 12 26  1  0  0  0  0
M  END
