
  xtb     02032210503D
 xtb: 6.4.1 (23d549d)
 20 20  0     0  0            999 V2000
    1.8029   -0.8994   -1.1251 c   0  0  0  0  0  0  0  0  0  0  0  0
    1.8657    0.2620   -0.4857 c   0  0  0  0  0  0  0  0  0  0  0  0
    2.7547    1.3769   -0.7965 c   0  0  0  0  0  0  0  0  0  0  0  0
    3.8170    1.2695   -1.6955 c   0  0  0  0  0  0  0  0  0  0  0  0
    4.6265    2.3590   -1.9550 c   0  0  0  0  0  0  0  0  0  0  0  0
    4.3944    3.5695   -1.3302 c   0  0  0  0  0  0  0  0  0  0  0  0
    3.3405    3.7060   -0.4237 c   0  0  0  0  0  0  0  0  0  0  0  0
    3.1438    5.0044    0.2033 c   0  0  0  0  0  0  0  0  0  0  0  0
    2.2174    5.3708    1.0761 c   0  0  0  0  0  0  0  0  0  0  0  0
    1.2400    4.6359    1.5940 f   0  0  0  0  0  0  0  0  0  0  0  0
    2.1391    6.6026    1.5787 f   0  0  0  0  0  0  0  0  0  0  0  0
    2.5350    2.5995   -0.1651 c   0  0  0  0  0  0  0  0  0  0  0  0
    1.1068   -1.6645   -0.8270 h   0  0  0  0  0  0  0  0  0  0  0  0
    2.4280   -1.1364   -1.9695 h   0  0  0  0  0  0  0  0  0  0  0  0
    1.1934    0.4419    0.3444 h   0  0  0  0  0  0  0  0  0  0  0  0
    4.0171    0.3298   -2.1855 h   0  0  0  0  0  0  0  0  0  0  0  0
    5.4475    2.2646   -2.6506 h   0  0  0  0  0  0  0  0  0  0  0  0
    5.0313    4.4161   -1.5402 h   0  0  0  0  0  0  0  0  0  0  0  0
    3.8398    5.7826   -0.0765 h   0  0  0  0  0  0  0  0  0  0  0  0
    1.7165    2.6784    0.5327 h   0  0  0  0  0  0  0  0  0  0  0  0
  1  2  2  0  0  0  0
  2  3  1  0  0  0  0
  3  4  4  0  0  0  0
  4  5  4  0  0  0  0
  5  6  4  0  0  0  0
  6  7  4  0  0  0  0
  7  8  1  0  0  0  0
  8  9  2  0  0  0  0
  9 10  1  0  0  0  0
  9 11  1  0  0  0  0
  3 12  4  0  0  0  0
  7 12  4  0  0  0  0
  1 13  1  0  0  0  0
  1 14  1  0  0  0  0
  2 15  1  0  0  0  0
  4 16  1  0  0  0  0
  5 17  1  0  0  0  0
  6 18  1  0  0  0  0
  8 19  1  0  0  0  0
 12 20  1  0  0  0  0
M  END
