
 OpenBabel02032211023D

 24 24  0  0  0  0  0  0  0  0999 V2000
    1.0389   -0.1992    0.1674 C   0  0  0  0  0  0  0  0  0  0  0  0
    2.2892    0.1318   -0.1824 C   0  0  0  0  0  0  0  0  0  0  0  0
    3.0475    1.3018    0.3462 C   0  0  0  0  0  0  0  0  0  0  0  0
    4.3535    1.5082   -0.1255 C   0  0  0  0  0  0  0  0  0  0  0  0
    5.1310    2.5872    0.3235 C   0  0  0  0  0  0  0  0  0  0  0  0
    6.5090    2.7367   -0.2242 C   0  0  0  0  0  0  0  0  0  0  0  0
    7.3702    3.7056    0.1147 C   0  0  0  0  0  0  0  0  0  0  0  0
    4.5778    3.4749    1.2652 C   0  0  0  0  0  0  0  0  0  0  0  0
    3.2791    3.2930    1.7510 C   0  0  0  0  0  0  0  0  0  0  0  0
    2.8095    4.1923    2.6576 O   0  0  0  0  0  0  0  0  0  0  0  0
    1.5695    4.1909    3.2667 C   0  0  0  0  0  0  0  0  0  0  0  0
    0.5678    4.2895    2.3169 F   0  0  0  0  0  0  0  0  0  0  0  0
    1.4037    3.0358    4.0106 F   0  0  0  0  0  0  0  0  0  0  0  0
    1.4858    5.2797    4.1128 F   0  0  0  0  0  0  0  0  0  0  0  0
    2.5150    2.2024    1.2898 C   0  0  0  0  0  0  0  0  0  0  0  0
    0.5754   -1.0737   -0.2783 H   0  0  0  0  0  0  0  0  0  0  0  0
    0.4539    0.3648    0.8810 H   0  0  0  0  0  0  0  0  0  0  0  0
    2.7820   -0.5082   -0.9098 H   0  0  0  0  0  0  0  0  0  0  0  0
    4.7709    0.8196   -0.8517 H   0  0  0  0  0  0  0  0  0  0  0  0
    6.8499    2.0074   -0.9543 H   0  0  0  0  0  0  0  0  0  0  0  0
    7.1362    4.4810    0.8316 H   0  0  0  0  0  0  0  0  0  0  0  0
    8.3546    3.7271   -0.3420 H   0  0  0  0  0  0  0  0  0  0  0  0
    5.1385    4.3192    1.6373 H   0  0  0  0  0  0  0  0  0  0  0  0
    1.5163    2.0645    1.6659 H   0  0  0  0  0  0  0  0  0  0  0  0
  1  2  2  0  0  0  0
  1 16  1  0  0  0  0
  1 17  1  0  0  0  0
  2  3  1  0  0  0  0
  2 18  1  0  0  0  0
  3  4  1  0  0  0  0
  3 15  2  0  0  0  0
  4  5  2  0  0  0  0
  4 19  1  0  0  0  0
  5  6  1  0  0  0  0
  5  8  1  0  0  0  0
  6  7  2  0  0  0  0
  6 20  1  0  0  0  0
  7 21  1  0  0  0  0
  7 22  1  0  0  0  0
  8  9  2  0  0  0  0
  8 23  1  0  0  0  0
  9 10  1  0  0  0  0
  9 15  1  0  0  0  0
 10 11  1  0  0  0  0
 11 12  1  0  0  0  0
 11 13  1  0  0  0  0
 11 14  1  0  0  0  0
 15 24  1  0  0  0  0
M  END
