45

C          0.85420        0.15160       -0.26450
C          2.40280        0.07760       -0.20790
C          2.79700       -1.20190        0.53190
C          3.56150       -1.18550        1.73020
N          4.03130        0.05930        2.29470
C          3.70710        1.31430        1.65400
C          2.92290        1.34740        0.46850
C          2.62800        2.60080       -0.12600
C          3.10120        3.79010        0.41250
C          3.89350        3.76400        1.54640
C          4.20010        2.55160        2.15530
C          4.84140        0.04840        3.49030
C          5.80267        1.04851        3.71518
C          6.57921        1.04641        4.87636
C          6.41221        0.05357        5.85682
C          7.27003        0.13894        7.07793
C          6.98965        0.78016        8.22593
F          5.84301        1.47408        8.43003
F          7.90343        0.75444        9.23131
C          5.45146       -0.95319        5.63099
C          4.68405       -0.95566        4.46237
C          3.81130       -2.42930        2.37390
C          3.36850       -3.63470        1.83670
C          2.65340       -3.64400        0.65180
C          2.36400       -2.44730        0.00990
C          2.98990        0.01480       -1.64210
H          0.43600        0.19460        0.76460
H          0.41420       -0.72590       -0.78010
H          0.49880        1.04270       -0.82010
H          2.03060        2.67100       -1.02370
H          2.86410        4.73370       -0.06160
H          4.27770        4.68960        1.95610
H          4.83920        2.61730        3.01830
H          5.94654        1.84039        2.99061
H          7.30856        1.83574        5.01303
H          8.23446       -0.36135        7.03479
H          5.27502       -1.75062        6.33097
H          3.95940       -1.74703        4.31328
H          4.34300       -2.50220        3.30740
H          3.57890       -4.56570        2.34690
H          2.30860       -4.58190        0.23480
H          1.78670       -2.50490       -0.90180
H          2.62520       -0.86900       -2.20380
H          4.09940       -0.03590       -1.59810
H          2.70850        0.90090       -2.24640
45

C          0.85420        0.15160       -0.26450
C          2.40280        0.07760       -0.20790
C          2.79700       -1.20190        0.53190
C          3.56150       -1.18550        1.73020
N          4.03130        0.05930        2.29470
C          3.70710        1.31430        1.65400
C          2.92290        1.34740        0.46850
C          2.62800        2.60080       -0.12600
C          3.10120        3.79010        0.41250
C          3.89350        3.76400        1.54640
C          4.20010        2.55160        2.15530
C          4.84140        0.04840        3.49030
C          5.80267        1.04851        3.71518
C          6.57921        1.04641        4.87636
C          6.41221        0.05357        5.85682
C          7.27003        0.13894        7.07793
C          6.96132       -0.27429        8.31955
F          5.77158       -0.83869        8.64190
F          7.87289       -0.10409        9.31278
C          5.45146       -0.95319        5.63099
C          4.68405       -0.95566        4.46237
C          3.81130       -2.42930        2.37390
C          3.36850       -3.63470        1.83670
C          2.65340       -3.64400        0.65180
C          2.36400       -2.44730        0.00990
C          2.98990        0.01480       -1.64210
H          0.43600        0.19460        0.76460
H          0.41420       -0.72590       -0.78010
H          0.49880        1.04270       -0.82010
H          2.03060        2.67100       -1.02370
H          2.86410        4.73370       -0.06160
H          4.27770        4.68960        1.95610
H          4.83920        2.61730        3.01830
H          5.94654        1.84039        2.99061
H          7.30856        1.83574        5.01303
H          8.24930        0.59587        6.95745
H          5.27502       -1.75062        6.33097
H          3.95940       -1.74703        4.31328
H          4.34300       -2.50220        3.30740
H          3.57890       -4.56570        2.34690
H          2.30860       -4.58190        0.23480
H          1.78670       -2.50490       -0.90180
H          2.62520       -0.86900       -2.20380
H          4.09940       -0.03590       -1.59810
H          2.70850        0.90090       -2.24640
45

C          0.85420        0.15160       -0.26450
C          2.40280        0.07760       -0.20790
C          2.79700       -1.20190        0.53190
C          3.56150       -1.18550        1.73020
N          4.03130        0.05930        2.29470
C          3.70710        1.31430        1.65400
C          2.92290        1.34740        0.46850
C          2.62800        2.60080       -0.12600
C          3.10120        3.79010        0.41250
C          3.89350        3.76400        1.54640
C          4.20010        2.55160        2.15530
C          4.84140        0.04840        3.49030
C          5.68319       -1.03970        3.77710
C          6.47628       -1.04713        4.92701
C          6.46479        0.03708        5.82103
C          7.35991       -0.04430        7.01537
C          8.63051        0.38483        7.11053
F          9.29926        0.96451        6.08354
F          9.29344        0.21574        8.28457
C          5.61760        1.12768        5.53739
C          4.81577        1.12725        4.39211
C          3.81130       -2.42930        2.37390
C          3.36850       -3.63470        1.83670
C          2.65340       -3.64400        0.65180
C          2.36400       -2.44730        0.00990
C          2.98990        0.01480       -1.64210
H          0.43600        0.19460        0.76460
H          0.41420       -0.72590       -0.78010
H          0.49880        1.04270       -0.82010
H          2.03060        2.67100       -1.02370
H          2.86410        4.73370       -0.06160
H          4.27770        4.68960        1.95610
H          4.83920        2.61730        3.01830
H          5.73243       -1.88481        3.10172
H          7.11278       -1.90414        5.11158
H          6.94702       -0.51230        7.90574
H          5.54804        1.98741        6.18006
H          4.16896        1.97596        4.20524
H          4.34300       -2.50220        3.30740
H          3.57890       -4.56570        2.34690
H          2.30860       -4.58190        0.23480
H          1.78670       -2.50490       -0.90180
H          2.62520       -0.86900       -2.20380
H          4.09940       -0.03590       -1.59810
H          2.70850        0.90090       -2.24640
45

C          0.85420        0.15160       -0.26450
C          2.40280        0.07760       -0.20790
C          2.79700       -1.20190        0.53190
C          3.56150       -1.18550        1.73020
N          4.03130        0.05930        2.29470
C          3.70710        1.31430        1.65400
C          2.92290        1.34740        0.46850
C          2.62800        2.60080       -0.12600
C          3.10120        3.79010        0.41250
C          3.89350        3.76400        1.54640
C          4.20010        2.55160        2.15530
C          4.84140        0.04840        3.49030
C          5.68319       -1.03970        3.77710
C          6.47628       -1.04713        4.92701
C          6.46479        0.03708        5.82103
C          7.35991       -0.04430        7.01537
C          7.94786        0.97705        7.66251
F          7.80683        2.27330        7.29125
F          8.74152        0.70582        8.73161
C          5.61760        1.12768        5.53739
C          4.81577        1.12725        4.39211
C          3.81130       -2.42930        2.37390
C          3.36850       -3.63470        1.83670
C          2.65340       -3.64400        0.65180
C          2.36400       -2.44730        0.00990
C          2.98990        0.01480       -1.64210
H          0.43600        0.19460        0.76460
H          0.41420       -0.72590       -0.78010
H          0.49880        1.04270       -0.82010
H          2.03060        2.67100       -1.02370
H          2.86410        4.73370       -0.06160
H          4.27770        4.68960        1.95610
H          4.83920        2.61730        3.01830
H          5.73243       -1.88481        3.10172
H          7.11278       -1.90414        5.11158
H          7.57240       -1.03841        7.40119
H          5.54804        1.98741        6.18006
H          4.16896        1.97596        4.20524
H          4.34300       -2.50220        3.30740
H          3.57890       -4.56570        2.34690
H          2.30860       -4.58190        0.23480
H          1.78670       -2.50490       -0.90180
H          2.62520       -0.86900       -2.20380
H          4.09940       -0.03590       -1.59810
H          2.70850        0.90090       -2.24640
45

C          0.85420        0.15160       -0.26450
C          2.40280        0.07760       -0.20790
C          2.79700       -1.20190        0.53190
C          3.56150       -1.18550        1.73020
N          4.03130        0.05930        2.29470
C          3.70710        1.31430        1.65400
C          2.92290        1.34740        0.46850
C          2.62800        2.60080       -0.12600
C          3.10120        3.79010        0.41250
C          3.89350        3.76400        1.54640
C          4.20010        2.55160        2.15530
C          4.84140        0.04840        3.49030
C          5.68319       -1.03970        3.77710
C          6.47628       -1.04713        4.92701
C          6.46479        0.03708        5.82103
C          7.35991       -0.04430        7.01537
C          8.19033       -1.04975        7.34267
F          8.32131       -2.17790        6.60235
F          8.92502       -0.94898        8.48132
C          5.61760        1.12768        5.53739
C          4.81577        1.12725        4.39211
C          3.81130       -2.42930        2.37390
C          3.36850       -3.63470        1.83670
C          2.65340       -3.64400        0.65180
C          2.36400       -2.44730        0.00990
C          2.98990        0.01480       -1.64210
H          0.43600        0.19460        0.76460
H          0.41420       -0.72590       -0.78010
H          0.49880        1.04270       -0.82010
H          2.03060        2.67100       -1.02370
H          2.86410        4.73370       -0.06160
H          4.27770        4.68960        1.95610
H          4.83920        2.61730        3.01830
H          5.73243       -1.88481        3.10172
H          7.11278       -1.90414        5.11158
H          7.33203        0.79483        7.70627
H          5.54804        1.98741        6.18006
H          4.16896        1.97596        4.20524
H          4.34300       -2.50220        3.30740
H          3.57890       -4.56570        2.34690
H          2.30860       -4.58190        0.23480
H          1.78670       -2.50490       -0.90180
H          2.62520       -0.86900       -2.20380
H          4.09940       -0.03590       -1.59810
H          2.70850        0.90090       -2.24640
45

C          0.85420        0.15160       -0.26450
C          2.40280        0.07760       -0.20790
C          2.79700       -1.20190        0.53190
C          3.56150       -1.18550        1.73020
N          4.03130        0.05930        2.29470
C          3.70710        1.31430        1.65400
C          2.92290        1.34740        0.46850
C          2.62800        2.60080       -0.12600
C          3.10120        3.79010        0.41250
C          3.89350        3.76400        1.54640
C          4.20010        2.55160        2.15530
C          4.84140        0.04840        3.49030
C          5.68319       -1.03970        3.77710
C          6.47628       -1.04713        4.92701
C          6.46479        0.03708        5.82103
C          7.35991       -0.04430        7.01537
C          8.53397       -0.69266        7.10946
F          9.07823       -1.39884        6.08815
F          9.20737       -0.66158        8.28929
C          5.61760        1.12768        5.53739
C          4.81577        1.12725        4.39211
C          3.81130       -2.42930        2.37390
C          3.36850       -3.63470        1.83670
C          2.65340       -3.64400        0.65180
C          2.36400       -2.44730        0.00990
C          2.98990        0.01480       -1.64210
H          0.43600        0.19460        0.76460
H          0.41420       -0.72590       -0.78010
H          0.49880        1.04270       -0.82010
H          2.03060        2.67100       -1.02370
H          2.86410        4.73370       -0.06160
H          4.27770        4.68960        1.95610
H          4.83920        2.61730        3.01830
H          5.73243       -1.88481        3.10172
H          7.11278       -1.90414        5.11158
H          7.02379        0.46581        7.91485
H          5.54804        1.98741        6.18006
H          4.16896        1.97596        4.20524
H          4.34300       -2.50220        3.30740
H          3.57890       -4.56570        2.34690
H          2.30860       -4.58190        0.23480
H          1.78670       -2.50490       -0.90180
H          2.62520       -0.86900       -2.20380
H          4.09940       -0.03590       -1.59810
H          2.70850        0.90090       -2.24640
45

C          0.85420        0.15160       -0.26450
C          2.40280        0.07760       -0.20790
C          2.79700       -1.20190        0.53190
C          3.56150       -1.18550        1.73020
N          4.03130        0.05930        2.29470
C          3.70710        1.31430        1.65400
C          2.92290        1.34740        0.46850
C          2.62800        2.60080       -0.12600
C          3.10120        3.79010        0.41250
C          3.89350        3.76400        1.54640
C          4.20010        2.55160        2.15530
C          4.84140        0.04840        3.49030
C          5.80267        1.04851        3.71518
C          6.57921        1.04641        4.87636
C          6.41221        0.05357        5.85682
C          7.27003        0.13894        7.07793
C          8.19978        1.06960        7.35559
F          8.50126        2.09321        6.51936
F          8.89194        0.97749        8.52130
C          5.45146       -0.95319        5.63099
C          4.68405       -0.95566        4.46237
C          3.81130       -2.42930        2.37390
C          3.36850       -3.63470        1.83670
C          2.65340       -3.64400        0.65180
C          2.36400       -2.44730        0.00990
C          2.98990        0.01480       -1.64210
H          0.43600        0.19460        0.76460
H          0.41420       -0.72590       -0.78010
H          0.49880        1.04270       -0.82010
H          2.03060        2.67100       -1.02370
H          2.86410        4.73370       -0.06160
H          4.27770        4.68960        1.95610
H          4.83920        2.61730        3.01830
H          5.94654        1.84039        2.99061
H          7.30856        1.83574        5.01303
H          7.14059       -0.64246        7.82287
H          5.27502       -1.75062        6.33097
H          3.95940       -1.74703        4.31328
H          4.34300       -2.50220        3.30740
H          3.57890       -4.56570        2.34690
H          2.30860       -4.58190        0.23480
H          1.78670       -2.50490       -0.90180
H          2.62520       -0.86900       -2.20380
H          4.09940       -0.03590       -1.59810
H          2.70850        0.90090       -2.24640
45

C          0.85420        0.15160       -0.26450
C          2.40280        0.07760       -0.20790
C          2.79700       -1.20190        0.53190
C          3.56150       -1.18550        1.73020
N          4.03130        0.05930        2.29470
C          3.70710        1.31430        1.65400
C          2.92290        1.34740        0.46850
C          2.62800        2.60080       -0.12600
C          3.10120        3.79010        0.41250
C          3.89350        3.76400        1.54640
C          4.20010        2.55160        2.15530
C          4.84140        0.04840        3.49030
C          5.80267        1.04851        3.71518
C          6.57921        1.04641        4.87636
C          6.41221        0.05357        5.85682
C          7.27003        0.13894        7.07793
C          7.77095        1.25074        7.64417
F          7.56176        2.49620        7.15117
F          8.54364        1.12953        8.75534
C          5.45146       -0.95319        5.63099
C          4.68405       -0.95566        4.46237
C          3.81130       -2.42930        2.37390
C          3.36850       -3.63470        1.83670
C          2.65340       -3.64400        0.65180
C          2.36400       -2.44730        0.00990
C          2.98990        0.01480       -1.64210
H          0.43600        0.19460        0.76460
H          0.41420       -0.72590       -0.78010
H          0.49880        1.04270       -0.82010
H          2.03060        2.67100       -1.02370
H          2.86410        4.73370       -0.06160
H          4.27770        4.68960        1.95610
H          4.83920        2.61730        3.01830
H          5.94654        1.84039        2.99061
H          7.30856        1.83574        5.01303
H          7.53114       -0.80028        7.55955
H          5.27502       -1.75062        6.33097
H          3.95940       -1.74703        4.31328
H          4.34300       -2.50220        3.30740
H          3.57890       -4.56570        2.34690
H          2.30860       -4.58190        0.23480
H          1.78670       -2.50490       -0.90180
H          2.62520       -0.86900       -2.20380
H          4.09940       -0.03590       -1.59810
H          2.70850        0.90090       -2.24640
