
  xtb     02032211353D
 xtb: 6.4.1 (23d549d)
 24 24  0     0  0            999 V2000
   -3.9438   -0.0555    0.0149 C   0  0  0  0  0  0  0  0  0  0  0  0
   -2.8439    0.6901    0.0243 C   0  0  0  0  0  0  0  0  0  0  0  0
   -1.4596    0.2398    0.0087 C   0  0  0  0  0  0  0  0  0  0  0  0
   -0.4504    1.2098    0.0013 C   0  0  0  0  0  0  0  0  0  0  0  0
    0.8962    0.8893   -0.0153 C   0  0  0  0  0  0  0  0  0  0  0  0
    1.8956    1.8153   -0.0213 O   0  0  0  0  0  0  0  0  0  0  0  0
    1.5605    3.1808   -0.0237 C   0  0  0  0  0  0  0  0  0  0  0  0
    1.2977   -0.4658   -0.0215 C   0  0  0  0  0  0  0  0  0  0  0  0
    2.7153   -0.7922   -0.0423 C   0  0  0  0  0  0  0  0  0  0  0  0
    3.2486   -2.0021    0.0880 C   0  0  0  0  0  0  0  0  0  0  0  0
    0.2997   -1.4337   -0.0159 C   0  0  0  0  0  0  0  0  0  0  0  0
   -1.0346   -1.0887   -0.0011 C   0  0  0  0  0  0  0  0  0  0  0  0
   -1.9272   -2.1066    0.0020 F   0  0  0  0  0  0  0  0  0  0  0  0
   -4.9175    0.4050    0.0281 H   0  0  0  0  0  0  0  0  0  0  0  0
   -3.9297   -1.1295   -0.0063 H   0  0  0  0  0  0  0  0  0  0  0  0
   -2.9485    1.7689    0.0445 H   0  0  0  0  0  0  0  0  0  0  0  0
   -0.7592    2.2437    0.0082 H   0  0  0  0  0  0  0  0  0  0  0  0
    0.9830    3.4534   -0.9129 H   0  0  0  0  0  0  0  0  0  0  0  0
    2.5100    3.7141   -0.0358 H   0  0  0  0  0  0  0  0  0  0  0  0
    1.0021    3.4609    0.8754 H   0  0  0  0  0  0  0  0  0  0  0  0
    3.3638    0.0632   -0.1682 H   0  0  0  0  0  0  0  0  0  0  0  0
    2.6593   -2.8911    0.2333 H   0  0  0  0  0  0  0  0  0  0  0  0
    4.3149   -2.1450    0.0587 H   0  0  0  0  0  0  0  0  0  0  0  0
    0.5541   -2.4808   -0.0309 H   0  0  0  0  0  0  0  0  0  0  0  0
  1  2  2  0  0  0  0
  2  3  1  0  0  0  0
  3  4  4  0  0  0  0
  4  5  4  0  0  0  0
  5  6  1  0  0  0  0
  6  7  1  0  0  0  0
  5  8  4  0  0  0  0
  8  9  1  0  0  0  0
  9 10  2  0  0  0  0
  8 11  4  0  0  0  0
  3 12  4  0  0  0  0
 11 12  4  0  0  0  0
 12 13  1  0  0  0  0
  1 14  1  0  0  0  0
  1 15  1  0  0  0  0
  2 16  1  0  0  0  0
  4 17  1  0  0  0  0
  7 18  1  0  0  0  0
  7 19  1  0  0  0  0
  7 20  1  0  0  0  0
  9 21  1  0  0  0  0
 10 22  1  0  0  0  0
 10 23  1  0  0  0  0
 11 24  1  0  0  0  0
M  END
