
  xtb     02032211353D
 xtb: 6.4.1 (23d549d)
 37 39  0     0  0            999 V2000
   -7.0628   -0.4517   -0.0819 C   0  0  0  0  0  0  0  0  0  0  0  0
   -5.7871   -0.8153   -0.1039 C   0  0  0  0  0  0  0  0  0  0  0  0
   -4.6283    0.0664    0.0025 C   0  0  0  0  0  0  0  0  0  0  0  0
   -4.7171    1.4553    0.1369 C   0  0  0  0  0  0  0  0  0  0  0  0
   -3.5494    2.1918    0.2285 C   0  0  0  0  0  0  0  0  0  0  0  0
   -2.3325    1.5359    0.1829 C   0  0  0  0  0  0  0  0  0  0  0  0
   -2.3324    0.1466    0.0464 C   0  0  0  0  0  0  0  0  0  0  0  0
   -1.0685   -0.6038   -0.0049 C   0  0  0  0  0  0  0  0  0  0  0  0
   -1.0721   -1.9997   -0.0406 C   0  0  0  0  0  0  0  0  0  0  0  0
    0.1415   -2.6629   -0.0805 C   0  0  0  0  0  0  0  0  0  0  0  0
    1.3101   -1.9225   -0.0852 C   0  0  0  0  0  0  0  0  0  0  0  0
    1.2186   -0.5296   -0.0519 C   0  0  0  0  0  0  0  0  0  0  0  0
    2.4326    0.3013   -0.0632 C   0  0  0  0  0  0  0  0  0  0  0  0
    2.3420    1.6919   -0.1582 C   0  0  0  0  0  0  0  0  0  0  0  0
    3.5119    2.4291   -0.1697 C   0  0  0  0  0  0  0  0  0  0  0  0
    4.7230    1.7649   -0.0852 C   0  0  0  0  0  0  0  0  0  0  0  0
    4.7231    0.3695    0.0091 C   0  0  0  0  0  0  0  0  0  0  0  0
    5.9821   -0.3631    0.1047 C   0  0  0  0  0  0  0  0  0  0  0  0
    6.0577   -1.6813    0.2351 C   0  0  0  0  0  0  0  0  0  0  0  0
    3.5947   -0.3332    0.0168 N   0  0  0  0  0  0  0  0  0  0  0  0
    0.0536    0.1067   -0.0123 N   0  0  0  0  0  0  0  0  0  0  0  0
   -3.4540   -0.5577   -0.0391 N   0  0  0  0  0  0  0  0  0  0  0  0
   -7.8524   -1.1785   -0.1682 H   0  0  0  0  0  0  0  0  0  0  0  0
   -7.3778    0.5729    0.0218 H   0  0  0  0  0  0  0  0  0  0  0  0
   -5.5200   -1.8581   -0.2095 H   0  0  0  0  0  0  0  0  0  0  0  0
   -5.6769    1.9451    0.1692 H   0  0  0  0  0  0  0  0  0  0  0  0
   -3.5894    3.2669    0.3348 H   0  0  0  0  0  0  0  0  0  0  0  0
   -1.3938    2.0596    0.2521 H   0  0  0  0  0  0  0  0  0  0  0  0
   -2.0150   -2.5209   -0.0352 H   0  0  0  0  0  0  0  0  0  0  0  0
    0.1760   -3.7430   -0.1076 H   0  0  0  0  0  0  0  0  0  0  0  0
    2.2839   -2.3822   -0.1162 H   0  0  0  0  0  0  0  0  0  0  0  0
    1.3710    2.1535   -0.2238 H   0  0  0  0  0  0  0  0  0  0  0  0
    3.4821    3.5072   -0.2441 H   0  0  0  0  0  0  0  0  0  0  0  0
    5.6561    2.3083   -0.0906 H   0  0  0  0  0  0  0  0  0  0  0  0
    6.8774    0.2438    0.0659 H   0  0  0  0  0  0  0  0  0  0  0  0
    5.1621   -2.2763    0.2763 H   0  0  0  0  0  0  0  0  0  0  0  0
    7.0002   -2.1966    0.3050 H   0  0  0  0  0  0  0  0  0  0  0  0
  1  2  2  0  0  0  0
  2  3  1  0  0  0  0
  3  4  4  0  0  0  0
  4  5  4  0  0  0  0
  5  6  4  0  0  0  0
  6  7  4  0  0  0  0
  7  8  1  0  0  0  0
  8  9  4  0  0  0  0
  9 10  4  0  0  0  0
 10 11  4  0  0  0  0
 11 12  4  0  0  0  0
 12 13  1  0  0  0  0
 13 14  4  0  0  0  0
 14 15  4  0  0  0  0
 15 16  4  0  0  0  0
 16 17  4  0  0  0  0
 17 18  1  0  0  0  0
 18 19  2  0  0  0  0
 13 20  4  0  0  0  0
 17 20  4  0  0  0  0
  8 21  4  0  0  0  0
 12 21  4  0  0  0  0
  3 22  4  0  0  0  0
  7 22  4  0  0  0  0
  1 23  1  0  0  0  0
  1 24  1  0  0  0  0
  2 25  1  0  0  0  0
  4 26  1  0  0  0  0
  5 27  1  0  0  0  0
  6 28  1  0  0  0  0
  9 29  1  0  0  0  0
 10 30  1  0  0  0  0
 11 31  1  0  0  0  0
 14 32  1  0  0  0  0
 15 33  1  0  0  0  0
 16 34  1  0  0  0  0
 18 35  1  0  0  0  0
 19 36  1  0  0  0  0
 19 37  1  0  0  0  0
M  END
