
  xtb     02032211353D
 xtb: 6.4.1 (23d549d)
 24 24  0     0  0            999 V2000
    3.8218    0.3940   -0.0923 C   0  0  0  0  0  0  0  0  0  0  0  0
    2.6734    1.0430    0.0552 C   0  0  0  0  0  0  0  0  0  0  0  0
    1.3339    0.4642    0.0354 C   0  0  0  0  0  0  0  0  0  0  0  0
    1.1061   -0.9066    0.0310 C   0  0  0  0  0  0  0  0  0  0  0  0
   -0.1879   -1.4264    0.0098 C   0  0  0  0  0  0  0  0  0  0  0  0
   -0.3590   -2.8757    0.0078 C   0  0  0  0  0  0  0  0  0  0  0  0
   -1.5068   -3.5413   -0.0190 C   0  0  0  0  0  0  0  0  0  0  0  0
   -1.2622   -0.5443   -0.0076 C   0  0  0  0  0  0  0  0  0  0  0  0
   -1.0541    0.8324   -0.0000 C   0  0  0  0  0  0  0  0  0  0  0  0
   -2.1850    1.5964   -0.0163 O   0  0  0  0  0  0  0  0  0  0  0  0
   -2.0515    2.9957   -0.0126 C   0  0  0  0  0  0  0  0  0  0  0  0
    0.2396    1.3329    0.0249 C   0  0  0  0  0  0  0  0  0  0  0  0
    4.7648    0.9128   -0.0665 H   0  0  0  0  0  0  0  0  0  0  0  0
    3.8749   -0.6695   -0.2498 H   0  0  0  0  0  0  0  0  0  0  0  0
    2.6970    2.1176    0.1944 H   0  0  0  0  0  0  0  0  0  0  0  0
    1.9417   -1.5888    0.0527 H   0  0  0  0  0  0  0  0  0  0  0  0
    0.5688   -3.4350    0.0300 H   0  0  0  0  0  0  0  0  0  0  0  0
   -2.4646   -3.0511   -0.0426 H   0  0  0  0  0  0  0  0  0  0  0  0
   -1.5291   -4.6178   -0.0186 H   0  0  0  0  0  0  0  0  0  0  0  0
   -2.2800   -0.8968   -0.0241 H   0  0  0  0  0  0  0  0  0  0  0  0
   -3.0669    3.3889   -0.0309 H   0  0  0  0  0  0  0  0  0  0  0  0
   -1.5114    3.3517   -0.8964 H   0  0  0  0  0  0  0  0  0  0  0  0
   -1.5443    3.3503    0.8910 H   0  0  0  0  0  0  0  0  0  0  0  0
    0.4233    2.3964    0.0315 H   0  0  0  0  0  0  0  0  0  0  0  0
  1  2  2  0  0  0  0
  2  3  1  0  0  0  0
  3  4  4  0  0  0  0
  4  5  4  0  0  0  0
  5  6  1  0  0  0  0
  6  7  2  0  0  0  0
  5  8  4  0  0  0  0
  8  9  4  0  0  0  0
  9 10  1  0  0  0  0
 10 11  1  0  0  0  0
  3 12  4  0  0  0  0
  9 12  4  0  0  0  0
  1 13  1  0  0  0  0
  1 14  1  0  0  0  0
  2 15  1  0  0  0  0
  4 16  1  0  0  0  0
  6 17  1  0  0  0  0
  7 18  1  0  0  0  0
  7 19  1  0  0  0  0
  8 20  1  0  0  0  0
 11 21  1  0  0  0  0
 11 22  1  0  0  0  0
 11 23  1  0  0  0  0
 12 24  1  0  0  0  0
M  END
