
  xtb     02032211363D
 xtb: 6.4.1 (23d549d)
 20 20  0     0  0            999 V2000
    3.4474   -1.4891    0.0510 C   0  0  0  0  0  0  0  0  0  0  0  0
    2.9175   -0.2778   -0.0630 C   0  0  0  0  0  0  0  0  0  0  0  0
    1.4998    0.0515   -0.0255 C   0  0  0  0  0  0  0  0  0  0  0  0
    0.4700   -0.8900    0.1321 C   0  0  0  0  0  0  0  0  0  0  0  0
   -0.8429   -0.4601    0.1363 C   0  0  0  0  0  0  0  0  0  0  0  0
   -1.9318   -1.4253    0.2447 C   0  0  0  0  0  0  0  0  0  0  0  0
   -3.1195   -1.3274   -0.3397 C   0  0  0  0  0  0  0  0  0  0  0  0
   -1.0261    0.9475    0.0443 C   0  0  0  0  0  0  0  0  0  0  0  0
   -2.2540    1.5379    0.0746 N   0  0  0  0  0  0  0  0  0  0  0  0
    0.0042    1.7766   -0.1072 N   0  0  0  0  0  0  0  0  0  0  0  0
    1.2208    1.3443   -0.1616 N   0  0  0  0  0  0  0  0  0  0  0  0
    4.5126   -1.6384    0.0115 H   0  0  0  0  0  0  0  0  0  0  0  0
    2.8541   -2.3779    0.1868 H   0  0  0  0  0  0  0  0  0  0  0  0
    3.5503    0.5884   -0.1985 H   0  0  0  0  0  0  0  0  0  0  0  0
    0.6913   -1.9431    0.2212 H   0  0  0  0  0  0  0  0  0  0  0  0
   -1.6921   -2.3086    0.8256 H   0  0  0  0  0  0  0  0  0  0  0  0
   -3.3790   -0.5042   -0.9836 H   0  0  0  0  0  0  0  0  0  0  0  0
   -3.8603   -2.1014   -0.2299 H   0  0  0  0  0  0  0  0  0  0  0  0
   -3.0018    1.0456    0.5355 H   0  0  0  0  0  0  0  0  0  0  0  0
   -2.2300    2.5395    0.1821 H   0  0  0  0  0  0  0  0  0  0  0  0
  1  2  2  0  0  0  0
  2  3  1  0  0  0  0
  3  4  4  0  0  0  0
  4  5  4  0  0  0  0
  5  6  1  0  0  0  0
  6  7  2  0  0  0  0
  5  8  4  0  0  0  0
  8  9  4  0  0  0  0
  8 10  4  0  0  0  0
  3 11  4  0  0  0  0
 10 11  4  0  0  0  0
  1 12  1  0  0  0  0
  1 13  1  0  0  0  0
  2 14  1  0  0  0  0
  4 15  1  0  0  0  0
  6 16  1  0  0  0  0
  7 17  1  0  0  0  0
  7 18  1  0  0  0  0
  9 19  1  0  0  0  0
  9 20  1  0  0  0  0
M  END
