
 OpenBabel02032211273D

 22 23  0  0  0  0  0  0  0  0999 V2000
    2.7733    0.0122    1.2354 C   0  0  0  0  0  0  0  0  0  0  0  0
    2.3342   -0.0726   -0.0250 C   0  0  0  0  0  0  0  0  0  0  0  0
    3.0859   -0.7797   -1.0853 C   0  0  0  0  0  0  0  0  0  0  0  0
    2.5671   -0.8415   -2.3989 C   0  0  0  0  0  0  0  0  0  0  0  0
    3.2805   -1.5145   -3.4196 C   0  0  0  0  0  0  0  0  0  0  0  0
    2.8050   -1.6289   -4.8267 C   0  0  0  0  0  0  0  0  0  0  0  0
    1.6418   -1.1435   -5.2793 C   0  0  0  0  0  0  0  0  0  0  0  0
    4.4965   -2.0933   -3.0435 C   0  0  0  0  0  0  0  0  0  0  0  0
    5.3493   -2.7826   -3.8289 N   0  0  0  0  0  0  0  0  0  0  0  0
    6.3618   -3.1294   -2.9952 C   0  0  0  0  0  0  0  0  0  0  0  0
    6.1064   -2.6458   -1.7211 C   0  0  0  0  0  0  0  0  0  0  0  0
    4.9345   -2.0030   -1.7836 N   0  0  0  0  0  0  0  0  0  0  0  0
    4.2818   -1.3773   -0.8099 N   0  0  0  0  0  0  0  0  0  0  0  0
    2.1850    0.5423    1.9774 H   0  0  0  0  0  0  0  0  0  0  0  0
    3.7114   -0.4387    1.5434 H   0  0  0  0  0  0  0  0  0  0  0  0
    1.3873    0.3980   -0.2742 H   0  0  0  0  0  0  0  0  0  0  0  0
    1.6201   -0.3641   -2.6020 H   0  0  0  0  0  0  0  0  0  0  0  0
    3.4387   -2.1441   -5.5430 H   0  0  0  0  0  0  0  0  0  0  0  0
    0.9364   -0.6197   -4.6481 H   0  0  0  0  0  0  0  0  0  0  0  0
    1.3782   -1.2772   -6.3237 H   0  0  0  0  0  0  0  0  0  0  0  0
    7.2305   -3.6993   -3.2967 H   0  0  0  0  0  0  0  0  0  0  0  0
    6.7192   -2.7550   -0.8361 H   0  0  0  0  0  0  0  0  0  0  0  0
  1  2  2  0  0  0  0
  1 14  1  0  0  0  0
  1 15  1  0  0  0  0
  2  3  1  0  0  0  0
  2 16  1  0  0  0  0
  3  4  1  0  0  0  0
  3 13  2  0  0  0  0
  4  5  2  0  0  0  0
  4 17  1  0  0  0  0
  5  6  1  0  0  0  0
  5  8  1  0  0  0  0
  6  7  2  0  0  0  0
  6 18  1  0  0  0  0
  7 19  1  0  0  0  0
  7 20  1  0  0  0  0
  8  9  2  0  0  0  0
  8 12  1  0  0  0  0
  9 10  1  0  0  0  0
 10 11  2  0  0  0  0
 10 21  1  0  0  0  0
 11 12  1  0  0  0  0
 11 22  1  0  0  0  0
 12 13  1  0  0  0  0
M  END
