
  xtb     02032211363D
 xtb: 6.4.1 (23d549d)
 22 23  0     0  0            999 V2000
   -3.9439   -0.2396   -0.0008 C   0  0  0  0  0  0  0  0  0  0  0  0
   -2.8615   -1.0071    0.0011 C   0  0  0  0  0  0  0  0  0  0  0  0
   -1.4970   -0.4909    0.0009 C   0  0  0  0  0  0  0  0  0  0  0  0
   -0.4044   -1.3927    0.0022 C   0  0  0  0  0  0  0  0  0  0  0  0
    0.8935   -0.9285    0.0018 C   0  0  0  0  0  0  0  0  0  0  0  0
    2.0941   -1.7480    0.0029 C   0  0  0  0  0  0  0  0  0  0  0  0
    2.1297   -3.0755   -0.0040 C   0  0  0  0  0  0  0  0  0  0  0  0
    1.0482    0.4760    0.0006 C   0  0  0  0  0  0  0  0  0  0  0  0
    2.1296    1.2336    0.0003 N   0  0  0  0  0  0  0  0  0  0  0  0
    1.6847    2.5031   -0.0013 C   0  0  0  0  0  0  0  0  0  0  0  0
    0.3088    2.5542   -0.0018 C   0  0  0  0  0  0  0  0  0  0  0  0
   -0.1013    1.2647   -0.0007 N   0  0  0  0  0  0  0  0  0  0  0  0
   -1.3402    0.8143   -0.0006 N   0  0  0  0  0  0  0  0  0  0  0  0
   -4.9358   -0.6570   -0.0006 H   0  0  0  0  0  0  0  0  0  0  0  0
   -3.8555    0.8328   -0.0027 H   0  0  0  0  0  0  0  0  0  0  0  0
   -2.9451   -2.0856    0.0030 H   0  0  0  0  0  0  0  0  0  0  0  0
   -0.6099   -2.4509    0.0039 H   0  0  0  0  0  0  0  0  0  0  0  0
    3.0080   -1.1706    0.0090 H   0  0  0  0  0  0  0  0  0  0  0  0
    1.2401   -3.6831   -0.0115 H   0  0  0  0  0  0  0  0  0  0  0  0
    3.0647   -3.6081   -0.0030 H   0  0  0  0  0  0  0  0  0  0  0  0
    2.3763    3.3227   -0.0018 H   0  0  0  0  0  0  0  0  0  0  0  0
   -0.3783    3.3734   -0.0030 H   0  0  0  0  0  0  0  0  0  0  0  0
  1  2  2  0  0  0  0
  2  3  1  0  0  0  0
  3  4  4  0  0  0  0
  4  5  4  0  0  0  0
  5  6  1  0  0  0  0
  6  7  2  0  0  0  0
  5  8  4  0  0  0  0
  8  9  4  0  0  0  0
  9 10  4  0  0  0  0
 10 11  4  0  0  0  0
  8 12  1  0  0  0  0
 11 12  4  0  0  0  0
  3 13  4  0  0  0  0
 12 13  1  0  0  0  0
  1 14  1  0  0  0  0
  1 15  1  0  0  0  0
  2 16  1  0  0  0  0
  4 17  1  0  0  0  0
  6 18  1  0  0  0  0
  7 19  1  0  0  0  0
  7 20  1  0  0  0  0
 10 21  1  0  0  0  0
 11 22  1  0  0  0  0
M  END
