18

C          2.50540        1.08700        0.00650
C          1.21460        0.32220        0.00350
C          1.21150       -1.08150        0.00540
C          0.00230       -1.78170        0.00380
C         -1.21100       -1.08860        0.00010
C         -1.22220        0.31520       -0.00230
C         -2.51730        1.07240       -0.00670
C         -0.00580        1.01560       -0.00060
H          3.38290        0.40590        0.00880
H          2.55670        1.72860        0.91120
H          2.56120        1.72870       -0.89800
H          2.14250       -1.63480        0.00840
H          0.00540       -2.86410        0.00530
H         -2.13880       -1.64720       -0.00100
H         -3.39090        0.38610       -0.00470
H         -2.57370        1.70990       -0.91400
H         -2.57570        1.71750        0.89520
H         -0.00900        2.09970       -0.00220
