
 OpenBabel02012213503D

 18 18  0  0  0  0  0  0  0  0999 V2000
    2.5092    1.0861    0.0090 C   0  0  0  0  0  0  0  0  0  0  0  0
    1.2166    0.3254    0.0032 C   0  0  0  0  0  0  0  0  0  0  0  0
    1.2098   -1.0734    0.0048 C   0  0  0  0  0  0  0  0  0  0  0  0
    0.0033   -1.7722    0.0004 C   0  0  0  0  0  0  0  0  0  0  0  0
   -1.2077   -1.0807   -0.0038 C   0  0  0  0  0  0  0  0  0  0  0  0
   -1.2231    0.3179   -0.0029 C   0  0  0  0  0  0  0  0  0  0  0  0
   -2.5206    1.0708   -0.0074 C   0  0  0  0  0  0  0  0  0  0  0  0
   -0.0055    1.0139   -0.0011 C   0  0  0  0  0  0  0  0  0  0  0  0
    3.3717    0.4102    0.0023 H   0  0  0  0  0  0  0  0  0  0  0  0
    2.5783    1.7072    0.9073 H   0  0  0  0  0  0  0  0  0  0  0  0
    2.5778    1.7232   -0.8782 H   0  0  0  0  0  0  0  0  0  0  0  0
    2.1442   -1.6293    0.0092 H   0  0  0  0  0  0  0  0  0  0  0  0
    0.0064   -2.8594    0.0008 H   0  0  0  0  0  0  0  0  0  0  0  0
   -2.1388   -1.6422   -0.0070 H   0  0  0  0  0  0  0  0  0  0  0  0
   -3.3787    0.3902    0.0182 H   0  0  0  0  0  0  0  0  0  0  0  0
   -2.6021    1.6791   -0.9136 H   0  0  0  0  0  0  0  0  0  0  0  0
   -2.5846    1.7202    0.8715 H   0  0  0  0  0  0  0  0  0  0  0  0
   -0.0085    2.1023   -0.0017 H   0  0  0  0  0  0  0  0  0  0  0  0
  1  2  1  0  0  0  0
  1  9  1  0  0  0  0
  1 10  1  0  0  0  0
  1 11  1  0  0  0  0
  2  3  1  0  0  0  0
  2  8  2  0  0  0  0
  3  4  2  0  0  0  0
  3 12  1  0  0  0  0
  4  5  1  0  0  0  0
  4 13  1  0  0  0  0
  5  6  2  0  0  0  0
  5 14  1  0  0  0  0
  6  7  1  0  0  0  0
  6  8  1  0  0  0  0
  7 15  1  0  0  0  0
  7 16  1  0  0  0  0
  7 17  1  0  0  0  0
  8 18  1  0  0  0  0
M  END
