
 OpenBabel02012214123D

 21 22  0  0  0  0  0  0  0  0999 V2000
    1.0558    0.1089   -0.0965 C   0  0  0  0  0  0  0  0  0  0  0  0
    2.5353   -0.0324   -0.0959 C   0  0  0  0  0  0  0  0  0  0  0  0
    3.3774    1.0580   -0.0951 N   0  0  0  0  0  0  0  0  0  0  0  0
    4.6731    0.6312   -0.0945 C   0  0  0  0  0  0  0  0  0  0  0  0
    5.7407    1.4656   -0.0932 N   0  0  0  0  0  0  0  0  0  0  0  0
    6.8718    0.8305   -0.0931 C   0  0  0  0  0  0  0  0  0  0  0  0
    7.0169   -0.5431   -0.0943 N   0  0  0  0  0  0  0  0  0  0  0  0
    5.9488   -1.4203   -0.0955 C   0  0  0  0  0  0  0  0  0  0  0  0
    6.1064   -2.6355   -0.0961 O   0  0  0  0  0  0  0  0  0  0  0  0
    4.6703   -0.7467   -0.0954 C   0  0  0  0  0  0  0  0  0  0  0  0
    3.3173   -1.1821   -0.0959 C   0  0  0  0  0  0  0  0  0  0  0  0
    2.8143   -2.5812   -0.0956 C   0  0  0  0  0  0  0  0  0  0  0  0
    0.7423    1.1567   -0.0970 H   0  0  0  0  0  0  0  0  0  0  0  0
    0.6320   -0.3742    0.7902 H   0  0  0  0  0  0  0  0  0  0  0  0
    0.6323   -0.3750   -0.9829 H   0  0  0  0  0  0  0  0  0  0  0  0
    3.1016    2.0301   -0.0952 H   0  0  0  0  0  0  0  0  0  0  0  0
    7.8321    1.3712   -0.0919 H   0  0  0  0  0  0  0  0  0  0  0  0
    7.9304   -0.9671   -0.0945 H   0  0  0  0  0  0  0  0  0  0  0  0
    3.6261   -3.3120   -0.0954 H   0  0  0  0  0  0  0  0  0  0  0  0
    2.1988   -2.7609   -0.9832 H   0  0  0  0  0  0  0  0  0  0  0  0
    2.1992   -2.7603    0.7923 H   0  0  0  0  0  0  0  0  0  0  0  0
  1  2  1  0  0  0  0
  1 13  1  0  0  0  0
  1 14  1  0  0  0  0
  1 15  1  0  0  0  0
  2  3  1  0  0  0  0
  2 11  2  0  0  0  0
  3  4  1  0  0  0  0
  3 16  1  0  0  0  0
  4  5  1  0  0  0  0
  4 10  2  0  0  0  0
  5  6  2  0  0  0  0
  6  7  1  0  0  0  0
  6 17  1  0  0  0  0
  7  8  1  0  0  0  0
  7 18  1  0  0  0  0
  8  9  2  0  0  0  0
  8 10  1  0  0  0  0
 10 11  1  0  0  0  0
 11 12  1  0  0  0  0
 12 19  1  0  0  0  0
 12 20  1  0  0  0  0
 12 21  1  0  0  0  0
M  END
