
 OpenBabel02032211273D

 42 42  0  0  0  0  0  0  0  0999 V2000
    2.2715   -0.2042   -1.4390 C   0  0  0  0  0  0  0  0  0  0  0  0
    3.0284    0.0525   -0.3633 C   0  0  0  0  0  0  0  0  0  0  0  0
    3.3748   -0.9359    0.6984 C   0  0  0  0  0  0  0  0  0  0  0  0
    4.1896   -0.5103    1.7587 C   0  0  0  0  0  0  0  0  0  0  0  0
    4.5604   -1.3848    2.7927 C   0  0  0  0  0  0  0  0  0  0  0  0
    5.4179   -0.8502    3.8885 C   0  0  0  0  0  0  0  0  0  0  0  0
    5.8310   -1.5504    4.9530 C   0  0  0  0  0  0  0  0  0  0  0  0
    4.1053   -2.7170    2.7515 C   0  0  0  0  0  0  0  0  0  0  0  0
    3.2876   -3.1649    1.7083 C   0  0  0  0  0  0  0  0  0  0  0  0
    2.8715   -4.4601    1.7273 O   0  0  0  0  0  0  0  0  0  0  0  0
    1.9291   -5.0084    0.8787 C   0  0  0  0  0  0  0  0  0  0  0  0
    1.7455   -6.4950    1.1836 C   0  0  0  0  0  0  0  0  0  0  0  0
    0.6251   -7.0771    0.3125 C   0  0  0  0  0  0  0  0  0  0  0  0
    0.4367   -8.5788    0.5536 C   0  0  0  0  0  0  0  0  0  0  0  0
   -0.7373   -9.1079   -0.2806 C   0  0  0  0  0  0  0  0  0  0  0  0
   -0.9309  -10.6185   -0.0853 C   0  0  0  0  0  0  0  0  0  0  0  0
   -2.0983  -11.1654   -0.8724 C   0  0  0  0  0  0  0  0  0  0  0  0
   -2.7885  -10.4337   -1.5670 O   0  0  0  0  0  0  0  0  0  0  0  0
   -2.3940  -12.4810   -0.8125 O   0  0  0  0  0  0  0  0  0  0  0  0
    2.9228   -2.2687    0.6832 C   0  0  0  0  0  0  0  0  0  0  0  0
    2.0797    0.5870   -2.1565 H   0  0  0  0  0  0  0  0  0  0  0  0
    1.8333   -1.1726   -1.6392 H   0  0  0  0  0  0  0  0  0  0  0  0
    3.4185    1.0622   -0.2659 H   0  0  0  0  0  0  0  0  0  0  0  0
    4.5381    0.5163    1.7807 H   0  0  0  0  0  0  0  0  0  0  0  0
    5.7318    0.1889    3.8299 H   0  0  0  0  0  0  0  0  0  0  0  0
    5.5735   -2.5884    5.1139 H   0  0  0  0  0  0  0  0  0  0  0  0
    6.4514   -1.0662    5.7006 H   0  0  0  0  0  0  0  0  0  0  0  0
    4.3665   -3.4244    3.5241 H   0  0  0  0  0  0  0  0  0  0  0  0
    2.2564   -4.9019   -0.1791 H   0  0  0  0  0  0  0  0  0  0  0  0
    0.9631   -4.4769    1.0256 H   0  0  0  0  0  0  0  0  0  0  0  0
    1.4777   -6.6240    2.2555 H   0  0  0  0  0  0  0  0  0  0  0  0
    2.7019   -7.0267    0.9859 H   0  0  0  0  0  0  0  0  0  0  0  0
    0.8642   -6.9122   -0.7615 H   0  0  0  0  0  0  0  0  0  0  0  0
   -0.3225   -6.5456    0.5527 H   0  0  0  0  0  0  0  0  0  0  0  0
    0.2293   -8.7617    1.6310 H   0  0  0  0  0  0  0  0  0  0  0  0
    1.3703   -9.1138    0.2716 H   0  0  0  0  0  0  0  0  0  0  0  0
   -0.5474   -8.9031   -1.3576 H   0  0  0  0  0  0  0  0  0  0  0  0
   -1.6654   -8.5770    0.0284 H   0  0  0  0  0  0  0  0  0  0  0  0
   -1.1052  -10.8315    0.9913 H   0  0  0  0  0  0  0  0  0  0  0  0
   -0.0087  -11.1476   -0.4098 H   0  0  0  0  0  0  0  0  0  0  0  0
   -1.8707  -13.0917   -0.2755 H   0  0  0  0  0  0  0  0  0  0  0  0
    2.2936   -2.6163   -0.1177 H   0  0  0  0  0  0  0  0  0  0  0  0
  1  2  2  0  0  0  0
  1 21  1  0  0  0  0
  1 22  1  0  0  0  0
  2  3  1  0  0  0  0
  2 23  1  0  0  0  0
  3  4  1  0  0  0  0
  3 20  2  0  0  0  0
  4  5  2  0  0  0  0
  4 24  1  0  0  0  0
  5  6  1  0  0  0  0
  5  8  1  0  0  0  0
  6  7  2  0  0  0  0
  6 25  1  0  0  0  0
  7 26  1  0  0  0  0
  7 27  1  0  0  0  0
  8  9  2  0  0  0  0
  8 28  1  0  0  0  0
  9 10  1  0  0  0  0
  9 20  1  0  0  0  0
 10 11  1  0  0  0  0
 11 12  1  0  0  0  0
 11 29  1  0  0  0  0
 11 30  1  0  0  0  0
 12 13  1  0  0  0  0
 12 31  1  0  0  0  0
 12 32  1  0  0  0  0
 13 14  1  0  0  0  0
 13 33  1  0  0  0  0
 13 34  1  0  0  0  0
 14 15  1  0  0  0  0
 14 35  1  0  0  0  0
 14 36  1  0  0  0  0
 15 16  1  0  0  0  0
 15 37  1  0  0  0  0
 15 38  1  0  0  0  0
 16 17  1  0  0  0  0
 16 39  1  0  0  0  0
 16 40  1  0  0  0  0
 17 18  2  0  0  0  0
 17 19  1  0  0  0  0
 19 41  1  0  0  0  0
 20 42  1  0  0  0  0
M  END
