
 OpenBabel02012213403D

 43 46  0  0  0  0  0  0  0  0999 V2000
    1.4175    0.2747   -0.5041 C   0  0  0  0  0  0  0  0  0  0  0  0
    2.4989   -0.2210    0.1943 O   0  0  0  0  0  0  0  0  0  0  0  0
    3.1331   -1.3960   -0.0556 C   0  0  0  0  0  0  0  0  0  0  0  0
    4.2341   -1.7376    0.7488 C   0  0  0  0  0  0  0  0  0  0  0  0
    4.8945   -2.9381    0.4952 C   0  0  0  0  0  0  0  0  0  0  0  0
    5.9742   -3.5141    1.1161 C   0  0  0  0  0  0  0  0  0  0  0  0
    6.7513   -3.0733    2.1865 C   0  0  0  0  0  0  0  0  0  0  0  0
    7.8338   -3.8702    2.5999 C   0  0  0  0  0  0  0  0  0  0  0  0
    8.5933   -3.4327    3.6381 O   0  0  0  0  0  0  0  0  0  0  0  0
    9.6958   -4.0816    4.1542 C   0  0  0  0  0  0  0  0  0  0  0  0
    8.1050   -5.0872    1.9192 C   0  0  0  0  0  0  0  0  0  0  0  0
    7.3036   -5.5072    0.8447 C   0  0  0  0  0  0  0  0  0  0  0  0
    6.2194   -4.7043    0.4615 C   0  0  0  0  0  0  0  0  0  0  0  0
    5.3249   -4.8951   -0.5535 N   0  0  0  0  0  0  0  0  0  0  0  0
    5.2704   -6.0140   -1.4756 C   0  0  0  0  0  0  0  0  0  0  0  0
    5.5198   -7.3282   -1.0339 C   0  0  0  0  0  0  0  0  0  0  0  0
    5.4928   -8.4024   -1.9270 C   0  0  0  0  0  0  0  0  0  0  0  0
    5.2188   -8.1871   -3.2837 C   0  0  0  0  0  0  0  0  0  0  0  0
    5.2038   -9.3292   -4.2561 C   0  0  0  0  0  0  0  0  0  0  0  0
    4.9615   -6.8862   -3.7331 C   0  0  0  0  0  0  0  0  0  0  0  0
    4.9841   -5.8117   -2.8394 C   0  0  0  0  0  0  0  0  0  0  0  0
    4.5153   -3.7951   -0.5192 C   0  0  0  0  0  0  0  0  0  0  0  0
    3.4071   -3.4879   -1.3219 C   0  0  0  0  0  0  0  0  0  0  0  0
    2.7212   -2.2823   -1.0883 C   0  0  0  0  0  0  0  0  0  0  0  0
    1.1262    1.2545   -0.0730 H   0  0  0  0  0  0  0  0  0  0  0  0
    0.5547   -0.4198   -0.4210 H   0  0  0  0  0  0  0  0  0  0  0  0
    1.6865    0.4244   -1.5716 H   0  0  0  0  0  0  0  0  0  0  0  0
    4.5597   -1.0819    1.5465 H   0  0  0  0  0  0  0  0  0  0  0  0
    6.5341   -2.1359    2.6824 H   0  0  0  0  0  0  0  0  0  0  0  0
   10.1109   -3.4839    4.9908 H   0  0  0  0  0  0  0  0  0  0  0  0
   10.4791   -4.1879    3.3728 H   0  0  0  0  0  0  0  0  0  0  0  0
    9.4065   -5.0818    4.5415 H   0  0  0  0  0  0  0  0  0  0  0  0
    8.9386   -5.7124    2.2084 H   0  0  0  0  0  0  0  0  0  0  0  0
    7.5573   -6.4245    0.3395 H   0  0  0  0  0  0  0  0  0  0  0  0
    5.7158   -7.5371    0.0076 H   0  0  0  0  0  0  0  0  0  0  0  0
    5.6875   -9.4015   -1.5568 H   0  0  0  0  0  0  0  0  0  0  0  0
    5.4293  -10.2945   -3.7547 H   0  0  0  0  0  0  0  0  0  0  0  0
    5.9692   -9.1568   -5.0422 H   0  0  0  0  0  0  0  0  0  0  0  0
    4.2038   -9.4037   -4.7320 H   0  0  0  0  0  0  0  0  0  0  0  0
    4.7529   -6.7023   -4.7799 H   0  0  0  0  0  0  0  0  0  0  0  0
    4.8117   -4.8197   -3.2303 H   0  0  0  0  0  0  0  0  0  0  0  0
    3.0557   -4.1450   -2.1014 H   0  0  0  0  0  0  0  0  0  0  0  0
    1.8698   -2.0482   -1.7131 H   0  0  0  0  0  0  0  0  0  0  0  0
  1  2  1  0  0  0  0
  1 25  1  0  0  0  0
  1 26  1  0  0  0  0
  1 27  1  0  0  0  0
  2  3  1  0  0  0  0
  3  4  1  0  0  0  0
  3 24  2  0  0  0  0
  4  5  2  0  0  0  0
  4 28  1  0  0  0  0
  5  6  1  0  0  0  0
  5 22  1  0  0  0  0
  6  7  2  0  0  0  0
  6 13  1  0  0  0  0
  7  8  1  0  0  0  0
  7 29  1  0  0  0  0
  8  9  1  0  0  0  0
  8 11  2  0  0  0  0
  9 10  1  0  0  0  0
 10 30  1  0  0  0  0
 10 31  1  0  0  0  0
 10 32  1  0  0  0  0
 11 12  1  0  0  0  0
 11 33  1  0  0  0  0
 12 13  2  0  0  0  0
 12 34  1  0  0  0  0
 13 14  1  0  0  0  0
 14 15  1  0  0  0  0
 14 22  1  0  0  0  0
 15 16  1  0  0  0  0
 15 21  2  0  0  0  0
 16 17  2  0  0  0  0
 16 35  1  0  0  0  0
 17 18  1  0  0  0  0
 17 36  1  0  0  0  0
 18 19  1  0  0  0  0
 18 20  2  0  0  0  0
 19 37  1  0  0  0  0
 19 38  1  0  0  0  0
 19 39  1  0  0  0  0
 20 21  1  0  0  0  0
 20 40  1  0  0  0  0
 21 41  1  0  0  0  0
 22 23  2  0  0  0  0
 23 24  1  0  0  0  0
 23 42  1  0  0  0  0
 24 43  1  0  0  0  0
M  END
