
 OpenBabel02012213403D

 43 46  0  0  0  0  0  0  0  0999 V2000
    1.3859    0.2792   -0.6439 C   0  0  0  0  0  0  0  0  0  0  0  0
    2.5325   -0.0713    0.1252 O   0  0  0  0  0  0  0  0  0  0  0  0
    3.0812   -1.3021   -0.1249 C   0  0  0  0  0  0  0  0  0  0  0  0
    4.1859   -1.6411    0.6735 C   0  0  0  0  0  0  0  0  0  0  0  0
    4.8480   -2.8833    0.5002 C   0  0  0  0  0  0  0  0  0  0  0  0
    5.9626   -3.5072    1.1445 C   0  0  0  0  0  0  0  0  0  0  0  0
    6.8330   -3.1224    2.1959 C   0  0  0  0  0  0  0  0  0  0  0  0
    7.8957   -3.9512    2.5877 C   0  0  0  0  0  0  0  0  0  0  0  0
    8.6695   -3.4782    3.6136 O   0  0  0  0  0  0  0  0  0  0  0  0
    9.7542   -4.3038    4.0261 C   0  0  0  0  0  0  0  0  0  0  0  0
    8.1085   -5.1496    1.9230 C   0  0  0  0  0  0  0  0  0  0  0  0
    7.2763   -5.5442    0.8759 C   0  0  0  0  0  0  0  0  0  0  0  0
    6.1764   -4.7383    0.5171 C   0  0  0  0  0  0  0  0  0  0  0  0
    5.2079   -4.8855   -0.4821 N   0  0  0  0  0  0  0  0  0  0  0  0
    5.1259   -5.9962   -1.3808 C   0  0  0  0  0  0  0  0  0  0  0  0
    5.4203   -7.2908   -0.9355 C   0  0  0  0  0  0  0  0  0  0  0  0
    5.5169   -8.3480   -1.8459 C   0  0  0  0  0  0  0  0  0  0  0  0
    5.2795   -8.1305   -3.2025 C   0  0  0  0  0  0  0  0  0  0  0  0
    5.4492   -9.2363   -4.2020 C   0  0  0  0  0  0  0  0  0  0  0  0
    4.8939   -6.8552   -3.6334 C   0  0  0  0  0  0  0  0  0  0  0  0
    4.8330   -5.7900   -2.7322 C   0  0  0  0  0  0  0  0  0  0  0  0
    4.3878   -3.7560   -0.4903 C   0  0  0  0  0  0  0  0  0  0  0  0
    3.2478   -3.4412   -1.2524 C   0  0  0  0  0  0  0  0  0  0  0  0
    2.6240   -2.2025   -1.0768 C   0  0  0  0  0  0  0  0  0  0  0  0
    1.0487    1.2687   -0.3209 H   0  0  0  0  0  0  0  0  0  0  0  0
    0.5631   -0.4233   -0.4706 H   0  0  0  0  0  0  0  0  0  0  0  0
    1.6301    0.3439   -1.7101 H   0  0  0  0  0  0  0  0  0  0  0  0
    4.5348   -0.9434    1.4308 H   0  0  0  0  0  0  0  0  0  0  0  0
    6.6857   -2.1698    2.6984 H   0  0  0  0  0  0  0  0  0  0  0  0
   10.2778   -3.7962    4.8405 H   0  0  0  0  0  0  0  0  0  0  0  0
   10.4717   -4.4499    3.2114 H   0  0  0  0  0  0  0  0  0  0  0  0
    9.3932   -5.2644    4.4097 H   0  0  0  0  0  0  0  0  0  0  0  0
    8.9298   -5.8120    2.1767 H   0  0  0  0  0  0  0  0  0  0  0  0
    7.5126   -6.4610    0.3468 H   0  0  0  0  0  0  0  0  0  0  0  0
    5.5756   -7.5066    0.1180 H   0  0  0  0  0  0  0  0  0  0  0  0
    5.7992   -9.3334   -1.4823 H   0  0  0  0  0  0  0  0  0  0  0  0
    5.8676  -10.1343   -3.7354 H   0  0  0  0  0  0  0  0  0  0  0  0
    6.1434   -8.9213   -4.9882 H   0  0  0  0  0  0  0  0  0  0  0  0
    4.4861   -9.4965   -4.6508 H   0  0  0  0  0  0  0  0  0  0  0  0
    4.6790   -6.6750   -4.6841 H   0  0  0  0  0  0  0  0  0  0  0  0
    4.6282   -4.8004   -3.1304 H   0  0  0  0  0  0  0  0  0  0  0  0
    2.8340   -4.1347   -1.9783 H   0  0  0  0  0  0  0  0  0  0  0  0
    1.7696   -1.9831   -1.7085 H   0  0  0  0  0  0  0  0  0  0  0  0
  1  2  1  0  0  0  0
  1 25  1  0  0  0  0
  1 26  1  0  0  0  0
  1 27  1  0  0  0  0
  2  3  1  0  0  0  0
  3  4  1  0  0  0  0
  3 24  2  0  0  0  0
  4  5  2  0  0  0  0
  4 28  1  0  0  0  0
  5  6  1  0  0  0  0
  5 22  1  0  0  0  0
  6  7  2  0  0  0  0
  6 13  1  0  0  0  0
  7  8  1  0  0  0  0
  7 29  1  0  0  0  0
  8  9  1  0  0  0  0
  8 11  2  0  0  0  0
  9 10  1  0  0  0  0
 10 30  1  0  0  0  0
 10 31  1  0  0  0  0
 10 32  1  0  0  0  0
 11 12  1  0  0  0  0
 11 33  1  0  0  0  0
 12 13  2  0  0  0  0
 12 34  1  0  0  0  0
 13 14  1  0  0  0  0
 14 15  1  0  0  0  0
 14 22  1  0  0  0  0
 15 16  1  0  0  0  0
 15 21  2  0  0  0  0
 16 17  2  0  0  0  0
 16 35  1  0  0  0  0
 17 18  1  0  0  0  0
 17 36  1  0  0  0  0
 18 19  1  0  0  0  0
 18 20  2  0  0  0  0
 19 37  1  0  0  0  0
 19 38  1  0  0  0  0
 19 39  1  0  0  0  0
 20 21  1  0  0  0  0
 20 40  1  0  0  0  0
 21 41  1  0  0  0  0
 22 23  2  0  0  0  0
 23 24  1  0  0  0  0
 23 42  1  0  0  0  0
 24 43  1  0  0  0  0
M  END
