
  xtb     02032211353D
 xtb: 6.4.1 (23d549d)
 22 22  0     0  0            999 V2000
    3.2001   -1.0563    0.3567 C   0  0  0  0  0  0  0  0  0  0  0  0
    2.6303   -0.0175   -0.2431 C   0  0  0  0  0  0  0  0  0  0  0  0
    1.2327    0.3969   -0.1222 C   0  0  0  0  0  0  0  0  0  0  0  0
    0.9622    1.7628   -0.0856 C   0  0  0  0  0  0  0  0  0  0  0  0
   -0.3260    2.2373    0.0619 C   0  0  0  0  0  0  0  0  0  0  0  0
   -1.3724    1.3402    0.1684 C   0  0  0  0  0  0  0  0  0  0  0  0
   -1.1515   -0.0305    0.1054 C   0  0  0  0  0  0  0  0  0  0  0  0
   -2.2688   -0.9649    0.2459 C   0  0  0  0  0  0  0  0  0  0  0  0
   -3.5005   -0.7482   -0.1961 C   0  0  0  0  0  0  0  0  0  0  0  0
    0.1619   -0.5144   -0.0611 C   0  0  0  0  0  0  0  0  0  0  0  0
    0.3835   -1.8742   -0.1672 N   0  0  0  0  0  0  0  0  0  0  0  0
    4.2484   -1.2702    0.2292 H   0  0  0  0  0  0  0  0  0  0  0  0
    2.6604   -1.7007    1.0300 H   0  0  0  0  0  0  0  0  0  0  0  0
    3.2428    0.6400   -0.8502 H   0  0  0  0  0  0  0  0  0  0  0  0
    1.7878    2.4568   -0.1558 H   0  0  0  0  0  0  0  0  0  0  0  0
   -0.5133    3.2997    0.1030 H   0  0  0  0  0  0  0  0  0  0  0  0
   -2.3789    1.7007    0.3180 H   0  0  0  0  0  0  0  0  0  0  0  0
   -2.0477   -1.8879    0.7691 H   0  0  0  0  0  0  0  0  0  0  0  0
   -3.7638    0.1447   -0.7381 H   0  0  0  0  0  0  0  0  0  0  0  0
   -4.2918   -1.4620   -0.0411 H   0  0  0  0  0  0  0  0  0  0  0  0
   -0.3964   -2.4141   -0.5066 H   0  0  0  0  0  0  0  0  0  0  0  0
    1.2699   -2.1278   -0.5770 H   0  0  0  0  0  0  0  0  0  0  0  0
  1  2  2  0  0  0  0
  2  3  1  0  0  0  0
  3  4  4  0  0  0  0
  4  5  4  0  0  0  0
  5  6  4  0  0  0  0
  6  7  4  0  0  0  0
  7  8  1  0  0  0  0
  8  9  2  0  0  0  0
  3 10  4  0  0  0  0
  7 10  4  0  0  0  0
 10 11  1  0  0  0  0
  1 12  1  0  0  0  0
  1 13  1  0  0  0  0
  2 14  1  0  0  0  0
  4 15  1  0  0  0  0
  5 16  1  0  0  0  0
  6 17  1  0  0  0  0
  8 18  1  0  0  0  0
  9 19  1  0  0  0  0
  9 20  1  0  0  0  0
 11 21  1  0  0  0  0
 11 22  1  0  0  0  0
M  END
