26

C          2.11351        0.63569        1.18352
C          2.44760       -0.02790        0.06810
C          3.18500       -1.30560        0.02770
C          2.48970       -2.52530        0.04770
C          3.15100       -3.76940        0.03830
C          2.31290       -5.02130        0.04850
C          4.55940       -3.80420        0.03290
C          5.29080       -5.08220       -0.02240
C          5.69323       -5.73283       -1.12111
F          5.46513       -5.24826       -2.35920
F          6.35286       -6.90316       -0.98198
C          5.25320       -2.58230        0.01360
C          4.59030       -1.33870        0.02410
C          5.42410       -0.08400        0.01550
H          1.56398        1.56969        1.11983
H          2.35775        0.27583        2.17694
H          2.14881        0.38984       -0.89032
H          1.40110       -2.51580        0.08170
H          1.24230       -4.79020        0.07800
H          2.54090       -5.62640        0.93170
H          2.49020       -5.60790       -0.85850
H          5.53300       -5.54137        0.93069
H          6.34180       -2.58360       -0.01760
H          6.49550       -0.31100       -0.02120
H          5.24830        0.49710        0.92650
H          5.18880        0.52490       -0.86320
26

C          2.85663        1.11763       -0.49456
C          2.44760       -0.02790        0.06810
C          3.18500       -1.30560        0.02770
C          2.48970       -2.52530        0.04770
C          3.15100       -3.76940        0.03830
C          2.31290       -5.02130        0.04850
C          4.55940       -3.80420        0.03290
C          5.29080       -5.08220       -0.02240
C          5.69922       -5.82187        1.01610
F          5.45730       -5.45396        2.29118
F          6.36506       -6.97228        0.77652
C          5.25320       -2.58230        0.01360
C          4.59030       -1.33870        0.02410
C          5.42410       -0.08400        0.01550
H          2.25092        2.01453       -0.41045
H          3.79250        1.20544       -1.03538
H          1.50517       -0.02908        0.61048
H          1.40110       -2.51580        0.08170
H          1.24230       -4.79020        0.07800
H          2.54090       -5.62640        0.93170
H          2.49020       -5.60790       -0.85850
H          5.51738       -5.46625       -1.01186
H          6.34180       -2.58360       -0.01760
H          6.49550       -0.31100       -0.02120
H          5.24830        0.49710        0.92650
H          5.18880        0.52490       -0.86320
26

C          2.02188        0.65203       -1.00549
C          2.44760       -0.02790        0.06810
C          3.18500       -1.30560        0.02770
C          2.48970       -2.52530        0.04770
C          3.15100       -3.76940        0.03830
C          2.31290       -5.02130        0.04850
C          4.55940       -3.80420        0.03290
C          5.29080       -5.08220       -0.02240
C          5.69922       -5.82187        1.01610
F          5.45730       -5.45396        2.29118
F          6.36506       -6.97228        0.77652
C          5.25320       -2.58230        0.01360
C          4.59030       -1.33870        0.02410
C          5.42410       -0.08400        0.01550
H          1.48965        1.59010       -0.88248
H          2.19450        0.31436       -2.02148
H          2.25161        0.38770        1.05360
H          1.40110       -2.51580        0.08170
H          1.24230       -4.79020        0.07800
H          2.54090       -5.62640        0.93170
H          2.49020       -5.60790       -0.85850
H          5.51738       -5.46625       -1.01186
H          6.34180       -2.58360       -0.01760
H          6.49550       -0.31100       -0.02120
H          5.24830        0.49710        0.92650
H          5.18880        0.52490       -0.86320
26

C          2.11351        0.63569        1.18352
C          2.44760       -0.02790        0.06810
C          3.18500       -1.30560        0.02770
C          2.48970       -2.52530        0.04770
C          3.15100       -3.76940        0.03830
C          2.31290       -5.02130        0.04850
C          4.55940       -3.80420        0.03290
C          5.29080       -5.08220       -0.02240
C          5.69922       -5.82187        1.01610
F          5.45730       -5.45396        2.29118
F          6.36506       -6.97228        0.77652
C          5.25320       -2.58230        0.01360
C          4.59030       -1.33870        0.02410
C          5.42410       -0.08400        0.01550
H          1.56398        1.56969        1.11983
H          2.35775        0.27583        2.17694
H          2.14881        0.38984       -0.89032
H          1.40110       -2.51580        0.08170
H          1.24230       -4.79020        0.07800
H          2.54090       -5.62640        0.93170
H          2.49020       -5.60790       -0.85850
H          5.51738       -5.46625       -1.01186
H          6.34180       -2.58360       -0.01760
H          6.49550       -0.31100       -0.02120
H          5.24830        0.49710        0.92650
H          5.18880        0.52490       -0.86320
26

C          2.90293        1.10937        0.61162
C          2.44760       -0.02790        0.06810
C          3.18500       -1.30560        0.02770
C          2.48970       -2.52530        0.04770
C          3.15100       -3.76940        0.03830
C          2.31290       -5.02130        0.04850
C          4.55940       -3.80420        0.03290
C          5.29080       -5.08220       -0.02240
C          5.69922       -5.82187        1.01610
F          5.45730       -5.45396        2.29118
F          6.36506       -6.97228        0.77652
C          5.25320       -2.58230        0.01360
C          4.59030       -1.33870        0.02410
C          5.42410       -0.08400        0.01550
H          2.28848        2.00422        0.60139
H          3.87500        1.18597        1.08623
H          1.45322       -0.02800       -0.37185
H          1.40110       -2.51580        0.08170
H          1.24230       -4.79020        0.07800
H          2.54090       -5.62640        0.93170
H          2.49020       -5.60790       -0.85850
H          5.51738       -5.46625       -1.01186
H          6.34180       -2.58360       -0.01760
H          6.49550       -0.31100       -0.02120
H          5.24830        0.49710        0.92650
H          5.18880        0.52490       -0.86320
26

C          2.02188        0.65203       -1.00549
C          2.44760       -0.02790        0.06810
C          3.18500       -1.30560        0.02770
C          2.48970       -2.52530        0.04770
C          3.15100       -3.76940        0.03830
C          2.31290       -5.02130        0.04850
C          4.55940       -3.80420        0.03290
C          5.29080       -5.08220       -0.02240
C          5.69323       -5.73283       -1.12111
F          5.46513       -5.24826       -2.35920
F          6.35286       -6.90316       -0.98198
C          5.25320       -2.58230        0.01360
C          4.59030       -1.33870        0.02410
C          5.42410       -0.08400        0.01550
H          1.48965        1.59010       -0.88248
H          2.19450        0.31436       -2.02148
H          2.25161        0.38770        1.05360
H          1.40110       -2.51580        0.08170
H          1.24230       -4.79020        0.07800
H          2.54090       -5.62640        0.93170
H          2.49020       -5.60790       -0.85850
H          5.53300       -5.54137        0.93069
H          6.34180       -2.58360       -0.01760
H          6.49550       -0.31100       -0.02120
H          5.24830        0.49710        0.92650
H          5.18880        0.52490       -0.86320
26

C          2.11351        0.63569        1.18352
C          2.44760       -0.02790        0.06810
C          3.18500       -1.30560        0.02770
C          2.48970       -2.52530        0.04770
C          3.15100       -3.76940        0.03830
C          2.31290       -5.02130        0.04850
C          4.55940       -3.80420        0.03290
C          5.29080       -5.08220       -0.02240
C          6.49022       -5.30030       -0.57580
F          7.19433       -4.31042       -1.16236
F          7.01036       -6.54614       -0.53688
C          5.25320       -2.58230        0.01360
C          4.59030       -1.33870        0.02410
C          5.42410       -0.08400        0.01550
H          1.56398        1.56969        1.11983
H          2.35775        0.27583        2.17694
H          2.14881        0.38984       -0.89032
H          1.40110       -2.51580        0.08170
H          1.24230       -4.79020        0.07800
H          2.54090       -5.62640        0.93170
H          2.49020       -5.60790       -0.85850
H          4.80618       -5.93609        0.44006
H          6.34180       -2.58360       -0.01760
H          6.49550       -0.31100       -0.02120
H          5.24830        0.49710        0.92650
H          5.18880        0.52490       -0.86320
26

C          2.02188        0.65203       -1.00549
C          2.44760       -0.02790        0.06810
C          3.18500       -1.30560        0.02770
C          2.48970       -2.52530        0.04770
C          3.15100       -3.76940        0.03830
C          2.31290       -5.02130        0.04850
C          4.55940       -3.80420        0.03290
C          5.29080       -5.08220       -0.02240
C          6.49022       -5.30030       -0.57580
F          7.19433       -4.31042       -1.16236
F          7.01036       -6.54614       -0.53688
C          5.25320       -2.58230        0.01360
C          4.59030       -1.33870        0.02410
C          5.42410       -0.08400        0.01550
H          1.48965        1.59010       -0.88248
H          2.19450        0.31436       -2.02148
H          2.25161        0.38770        1.05360
H          1.40110       -2.51580        0.08170
H          1.24230       -4.79020        0.07800
H          2.54090       -5.62640        0.93170
H          2.49020       -5.60790       -0.85850
H          4.80618       -5.93609        0.44006
H          6.34180       -2.58360       -0.01760
H          6.49550       -0.31100       -0.02120
H          5.24830        0.49710        0.92650
H          5.18880        0.52490       -0.86320
26

C          2.02188        0.65203       -1.00549
C          2.44760       -0.02790        0.06810
C          3.18500       -1.30560        0.02770
C          2.48970       -2.52530        0.04770
C          3.15100       -3.76940        0.03830
C          2.31290       -5.02130        0.04850
C          4.55940       -3.80420        0.03290
C          5.29080       -5.08220       -0.02240
C          6.61897       -5.25067       -0.01996
F          7.46911       -4.20557        0.04875
F          7.11816       -6.50421       -0.08011
C          5.25320       -2.58230        0.01360
C          4.59030       -1.33870        0.02410
C          5.42410       -0.08400        0.01550
H          1.48965        1.59010       -0.88248
H          2.19450        0.31436       -2.02148
H          2.25161        0.38770        1.05360
H          1.40110       -2.51580        0.08170
H          1.24230       -4.79020        0.07800
H          2.54090       -5.62640        0.93170
H          2.49020       -5.60790       -0.85850
H          4.68654       -5.98274       -0.06435
H          6.34180       -2.58360       -0.01760
H          6.49550       -0.31100       -0.02120
H          5.24830        0.49710        0.92650
H          5.18880        0.52490       -0.86320
26

C          2.90293        1.10937        0.61162
C          2.44760       -0.02790        0.06810
C          3.18500       -1.30560        0.02770
C          2.48970       -2.52530        0.04770
C          3.15100       -3.76940        0.03830
C          2.31290       -5.02130        0.04850
C          4.55940       -3.80420        0.03290
C          5.29080       -5.08220       -0.02240
C          4.76201       -6.31115       -0.07212
F          3.42822       -6.51222       -0.08879
F          5.59036       -7.37707       -0.11467
C          5.25320       -2.58230        0.01360
C          4.59030       -1.33870        0.02410
C          5.42410       -0.08400        0.01550
H          2.28848        2.00422        0.60139
H          3.87500        1.18597        1.08623
H          1.45322       -0.02800       -0.37185
H          1.40110       -2.51580        0.08170
H          1.24230       -4.79020        0.07800
H          2.54090       -5.62640        0.93170
H          2.49020       -5.60790       -0.85850
H          6.37420       -5.01843       -0.02864
H          6.34180       -2.58360       -0.01760
H          6.49550       -0.31100       -0.02120
H          5.24830        0.49710        0.92650
H          5.18880        0.52490       -0.86320
