  26

 C          2.1135100000        0.6356900000        1.1835200000
 C          2.4476000000       -0.0279000000        0.0681000000
 C          3.1850000000       -1.3056000000        0.0277000000
 C          2.4897000000       -2.5253000000        0.0477000000
 C          3.1510000000       -3.7694000000        0.0383000000
 C          2.3129000000       -5.0213000000        0.0485000000
 C          4.5594000000       -3.8042000000        0.0329000000
 C          5.2908000000       -5.0822000000       -0.0224000000
 C          5.6932300000       -5.7328300000       -1.1211100000
 F          5.4651300000       -5.2482600000       -2.3592000000
 F          6.3528600000       -6.9031600000       -0.9819800000
 C          5.2532000000       -2.5823000000        0.0136000000
 C          4.5903000000       -1.3387000000        0.0241000000
 C          5.4241000000       -0.0840000000        0.0155000000
 H          1.5639800000        1.5696900000        1.1198300000
 H          2.3577500000        0.2758300000        2.1769400000
 H          2.1488100000        0.3898400000       -0.8903200000
 H          1.4011000000       -2.5158000000        0.0817000000
 H          1.2423000000       -4.7902000000        0.0780000000
 H          2.5409000000       -5.6264000000        0.9317000000
 H          2.4902000000       -5.6079000000       -0.8585000000
 H          5.5330000000       -5.5413700000        0.9306900000
 H          6.3418000000       -2.5836000000       -0.0176000000
 H          6.4955000000       -0.3110000000       -0.0212000000
 H          5.2483000000        0.4971000000        0.9265000000
 H          5.1888000000        0.5249000000       -0.8632000000
