
 OpenBabel02032211123D

 29 29  0  0  0  0  0  0  0  0999 V2000
    1.1636    0.0009   -0.1928 C   0  0  0  0  0  0  0  0  0  0  0  0
    2.4899    0.1771   -0.1395 C   0  0  0  0  0  0  0  0  0  0  0  0
    3.1278    0.7054    1.0153 C   0  0  0  0  0  0  0  0  0  0  0  0
    2.7618    0.6349    2.3431 C   0  0  0  0  0  0  0  0  0  0  0  0
    3.6788    1.2795    3.2389 C   0  0  0  0  0  0  0  0  0  0  0  0
    3.4740    1.2616    4.7329 C   0  0  0  0  0  0  0  0  0  0  0  0
    2.6197    2.4245    5.2417 C   0  0  0  0  0  0  0  0  0  0  0  0
    2.4239    2.3345    6.7570 C   0  0  0  0  0  0  0  0  0  0  0  0
    1.5926    3.4931    7.2837 C   0  0  0  0  0  0  0  0  0  0  0  0
    4.7455    1.8597    2.5547 C   0  0  0  0  0  0  0  0  0  0  0  0
    5.8282    2.6267    3.0861 C   0  0  0  0  0  0  0  0  0  0  0  0
    7.0401    2.6976    2.5218 C   0  0  0  0  0  0  0  0  0  0  0  0
    4.5942    1.5674    0.8599 S   0  0  0  0  0  0  0  0  0  0  0  0
    0.6969   -0.4056   -1.0841 H   0  0  0  0  0  0  0  0  0  0  0  0
    0.5063    0.2736    0.6273 H   0  0  0  0  0  0  0  0  0  0  0  0
    3.0984   -0.0797   -1.0060 H   0  0  0  0  0  0  0  0  0  0  0  0
    1.8718    0.1126    2.6778 H   0  0  0  0  0  0  0  0  0  0  0  0
    4.4434    1.2542    5.2416 H   0  0  0  0  0  0  0  0  0  0  0  0
    2.9853    0.3148    5.0033 H   0  0  0  0  0  0  0  0  0  0  0  0
    1.6419    2.4165    4.7452 H   0  0  0  0  0  0  0  0  0  0  0  0
    3.0973    3.3779    4.9861 H   0  0  0  0  0  0  0  0  0  0  0  0
    3.3982    2.3345    7.2593 H   0  0  0  0  0  0  0  0  0  0  0  0
    1.9277    1.3912    7.0141 H   0  0  0  0  0  0  0  0  0  0  0  0
    2.0755    4.4512    7.0675 H   0  0  0  0  0  0  0  0  0  0  0  0
    1.4716    3.4111    8.3687 H   0  0  0  0  0  0  0  0  0  0  0  0
    0.5963    3.4988    6.8306 H   0  0  0  0  0  0  0  0  0  0  0  0
    5.6523    3.1684    4.0134 H   0  0  0  0  0  0  0  0  0  0  0  0
    7.3041    2.1677    1.6138 H   0  0  0  0  0  0  0  0  0  0  0  0
    7.8214    3.2995    2.9759 H   0  0  0  0  0  0  0  0  0  0  0  0
  1  2  2  0  0  0  0
  1 14  1  0  0  0  0
  1 15  1  0  0  0  0
  2  3  1  0  0  0  0
  2 16  1  0  0  0  0
  3  4  2  0  0  0  0
  3 13  1  0  0  0  0
  4  5  1  0  0  0  0
  4 17  1  0  0  0  0
  5  6  1  0  0  0  0
  5 10  2  0  0  0  0
  6  7  1  0  0  0  0
  6 18  1  0  0  0  0
  6 19  1  0  0  0  0
  7  8  1  0  0  0  0
  7 20  1  0  0  0  0
  7 21  1  0  0  0  0
  8  9  1  0  0  0  0
  8 22  1  0  0  0  0
  8 23  1  0  0  0  0
  9 24  1  0  0  0  0
  9 25  1  0  0  0  0
  9 26  1  0  0  0  0
 10 11  1  0  0  0  0
 10 13  1  0  0  0  0
 11 12  2  0  0  0  0
 11 27  1  0  0  0  0
 12 28  1  0  0  0  0
 12 29  1  0  0  0  0
M  END
