
 OpenBabel02012213483D

 32 33  0  0  0  0  0  0  0  0999 V2000
    2.5688   -1.1334    0.0075 C   0  0  0  0  0  0  0  0  0  0  0  0
    1.2817   -0.3710   -0.0376 C   0  0  0  0  0  0  0  0  0  0  0  0
    1.2716    1.0171   -0.0348 C   0  0  0  0  0  0  0  0  0  0  0  0
    0.0600    1.7083   -0.1012 C   0  0  0  0  0  0  0  0  0  0  0  0
   -1.1908    1.0571   -0.0578 C   0  0  0  0  0  0  0  0  0  0  0  0
   -2.4601    1.8812    0.0354 C   0  0  0  0  0  0  0  0  0  0  0  0
   -3.6158    1.4592   -0.6550 C   0  0  0  0  0  0  0  0  0  0  0  0
   -4.8499    2.0975   -0.5227 C   0  0  0  0  0  0  0  0  0  0  0  0
   -4.9589    3.2533    0.2374 C   0  0  0  0  0  0  0  0  0  0  0  0
   -6.2643    3.9705    0.3818 C   0  0  0  0  0  0  0  0  0  0  0  0
   -3.8075    3.7578    0.8552 C   0  0  0  0  0  0  0  0  0  0  0  0
   -2.5788    3.0662    0.8190 C   0  0  0  0  0  0  0  0  0  0  0  0
   -1.4817    3.7214    1.4199 N   0  0  0  0  0  0  0  0  0  0  0  0
   -1.1760   -0.3660   -0.0269 C   0  0  0  0  0  0  0  0  0  0  0  0
   -2.3331   -1.1626   -0.1596 N   0  0  0  0  0  0  0  0  0  0  0  0
    0.0571   -1.0472   -0.0923 C   0  0  0  0  0  0  0  0  0  0  0  0
    3.4321   -0.4606    0.0030 H   0  0  0  0  0  0  0  0  0  0  0  0
    2.6510   -1.7900   -0.8640 H   0  0  0  0  0  0  0  0  0  0  0  0
    2.6167   -1.7353    0.9200 H   0  0  0  0  0  0  0  0  0  0  0  0
    2.2005    1.5810    0.0044 H   0  0  0  0  0  0  0  0  0  0  0  0
    0.1157    2.7937   -0.1694 H   0  0  0  0  0  0  0  0  0  0  0  0
   -3.5732    0.5977   -1.3184 H   0  0  0  0  0  0  0  0  0  0  0  0
   -5.7170    1.6783   -1.0228 H   0  0  0  0  0  0  0  0  0  0  0  0
   -7.0582    3.4696   -0.1816 H   0  0  0  0  0  0  0  0  0  0  0  0
   -6.1796    4.9948    0.0048 H   0  0  0  0  0  0  0  0  0  0  0  0
   -6.5636    3.9972    1.4350 H   0  0  0  0  0  0  0  0  0  0  0  0
   -3.8769    4.6967    1.4021 H   0  0  0  0  0  0  0  0  0  0  0  0
   -1.7325    4.3929    2.1384 H   0  0  0  0  0  0  0  0  0  0  0  0
   -0.7571    3.0884    1.7350 H   0  0  0  0  0  0  0  0  0  0  0  0
   -3.1520   -0.7447    0.2698 H   0  0  0  0  0  0  0  0  0  0  0  0
   -2.2098   -2.1246    0.1345 H   0  0  0  0  0  0  0  0  0  0  0  0
    0.0641   -2.1334   -0.1549 H   0  0  0  0  0  0  0  0  0  0  0  0
  1  2  1  0  0  0  0
  1 17  1  0  0  0  0
  1 18  1  0  0  0  0
  1 19  1  0  0  0  0
  2  3  1  0  0  0  0
  2 16  2  0  0  0  0
  3  4  2  0  0  0  0
  3 20  1  0  0  0  0
  4  5  1  0  0  0  0
  4 21  1  0  0  0  0
  5  6  1  0  0  0  0
  5 14  2  0  0  0  0
  6  7  1  0  0  0  0
  6 12  2  0  0  0  0
  7  8  2  0  0  0  0
  7 22  1  0  0  0  0
  8  9  1  0  0  0  0
  8 23  1  0  0  0  0
  9 10  1  0  0  0  0
  9 11  2  0  0  0  0
 10 24  1  0  0  0  0
 10 25  1  0  0  0  0
 10 26  1  0  0  0  0
 11 12  1  0  0  0  0
 11 27  1  0  0  0  0
 12 13  1  0  0  0  0
 13 28  1  0  0  0  0
 13 29  1  0  0  0  0
 14 15  1  0  0  0  0
 14 16  1  0  0  0  0
 15 30  1  0  0  0  0
 15 31  1  0  0  0  0
 16 32  1  0  0  0  0
M  END
