46

C          1.74836       -0.91428       -1.03439
O          2.41248       -0.11128       -0.13021
C          3.17724       -0.54681        0.90509
C          3.31931       -1.92392        1.09180
C          4.08642       -2.42681        2.14643
C          4.73780       -1.55950        3.05070
N          5.52090       -2.07730        4.15450
C          6.65940       -1.33460        4.65480
C          7.04757       -1.40870        6.00765
C          8.15593       -0.69831        6.47784
C          8.91741        0.11166        5.61787
C         10.09280        0.82892        6.19980
C         10.85796        0.43538        7.23410
F         10.65272       -0.71648        7.91875
F         11.88848        1.22936        7.62626
C          8.52983        0.19572        4.26748
C          7.42267       -0.51342        3.79829
C          5.18650       -3.35590        4.74740
C          4.10102       -4.12353        4.27146
C          3.79713       -5.36586        4.83464
C          4.56236       -5.88110        5.88420
O          4.23416       -7.09976        6.38627
C          3.19471       -7.89515        5.94962
C          5.64169       -5.12485        6.37513
C          5.94632       -3.88243        5.81536
C          4.59239       -0.16912        2.84830
C          3.82498        0.33118        1.79271
H          1.21447       -0.27276       -1.76521
H          1.00367       -1.55050       -0.51061
H          2.47339       -1.55023       -1.58614
H          2.82455       -2.61280        0.41839
H          4.14897       -3.50026        2.26092
H          6.50683       -2.03300        6.70650
H          8.42417       -0.79009        7.52321
H         10.36108        1.77850        5.74395
H          9.05661        0.79954        3.55078
H          7.15837       -0.40442        2.75516
H          3.49402       -3.77770        3.44578
H          2.96437       -5.93731        4.44404
H          3.17134       -8.82541        6.55311
H          3.33892       -8.16759        4.88252
H          2.22714       -7.36454        6.08034
H          6.25472       -5.48731        7.18926
H          6.77849       -3.32947        6.23027
H          5.08286        0.54127        3.50001
H          3.74244        1.40352        1.67760
46

C          1.68561        1.06105       -0.15705
O          2.41248       -0.11128       -0.13021
C          3.17724       -0.54681        0.90509
C          3.31931       -1.92392        1.09180
C          4.08642       -2.42681        2.14643
C          4.73780       -1.55950        3.05070
N          5.52090       -2.07730        4.15450
C          6.65940       -1.33460        4.65480
C          7.04757       -1.40870        6.00765
C          8.15593       -0.69831        6.47784
C          8.91741        0.11166        5.61787
C         10.09280        0.82892        6.19980
C         11.23442        1.16624        5.57288
F         11.48205        0.88468        4.27017
F         12.19947        1.81687        6.27399
C          8.52983        0.19572        4.26748
C          7.42267       -0.51342        3.79829
C          5.18650       -3.35590        4.74740
C          4.10102       -4.12353        4.27146
C          3.79713       -5.36586        4.83464
C          4.56236       -5.88110        5.88420
O          4.23416       -7.09976        6.38627
C          3.64459       -8.12764        5.67941
C          5.64169       -5.12485        6.37513
C          5.94632       -3.88243        5.81536
C          4.59239       -0.16912        2.84830
C          3.82498        0.33118        1.79271
H          1.16050        1.13986       -1.13107
H          2.36091        1.93595       -0.04649
H          0.92654        1.05942        0.65432
H          2.82455       -2.61280        0.41839
H          4.14897       -3.50026        2.26092
H          6.50683       -2.03300        6.70650
H          8.42417       -0.79009        7.52321
H         10.02597        1.10700        7.24846
H          9.05661        0.79954        3.55078
H          7.15837       -0.40442        2.75516
H          3.49402       -3.77770        3.44578
H          2.96437       -5.93731        4.44404
H          3.49290       -8.99315        6.35617
H          4.29917       -8.44387        4.83962
H          2.65479       -7.80499        5.29080
H          6.25472       -5.48731        7.18926
H          6.77849       -3.32947        6.23027
H          5.08286        0.54127        3.50001
H          3.74244        1.40352        1.67760
46

C          3.06141        0.76635       -1.17198
O          2.53569       -0.04156       -0.18492
C          3.22321       -0.55780        0.86732
C          4.31290        0.16087        1.36488
C          5.06117       -0.32829        2.43932
C          4.73780       -1.55950        3.05070
N          5.52090       -2.07730        4.15450
C          6.65940       -1.33460        4.65480
C          7.04757       -1.40870        6.00765
C          8.15593       -0.69831        6.47784
C          8.91741        0.11166        5.61787
C         10.09280        0.82892        6.19980
C         10.52046        0.79305        7.47492
F          9.91173        0.06969        8.44643
F         11.61423        1.52159        7.82001
C          8.52983        0.19572        4.26748
C          7.42267       -0.51342        3.79829
C          5.18650       -3.35590        4.74740
C          6.17886       -4.17949        5.32269
C          5.84592       -5.40232        5.91155
C          4.51961       -5.84081        5.94698
O          4.24733       -7.02995        6.54424
C          5.17531       -7.86476        7.13225
C          3.52065       -5.03586        5.37076
C          3.85093       -3.81445        4.78014
C          3.63009       -2.27431        2.54345
C          2.88330       -1.78279        1.46912
H          2.25780        1.03245       -1.88897
H          3.86407        0.23056       -1.72185
H          3.46221        1.70239       -0.72733
H          4.58881        1.10438        0.91047
H          5.90773        0.25492        2.77474
H          6.50683       -2.03300        6.70650
H          8.42417       -0.79009        7.52321
H         10.66735        1.45596        5.52290
H          9.05661        0.79954        3.55078
H          7.15837       -0.40442        2.75516
H          7.21579       -3.87249        5.34047
H          6.62609       -6.00971        6.35315
H          4.65699       -8.76180        7.52819
H          5.68194       -7.34677        7.97411
H          5.92455       -8.19262        6.37993
H          2.48343       -5.34268        5.37410
H          3.05288       -3.23180        4.33961
H          3.32681       -3.21444        2.98403
H          2.04356       -2.36533        1.11490
46

C          1.74836       -0.91428       -1.03439
O          2.41248       -0.11128       -0.13021
C          3.17724       -0.54681        0.90509
C          3.31931       -1.92392        1.09180
C          4.08642       -2.42681        2.14643
C          4.73780       -1.55950        3.05070
N          5.52090       -2.07730        4.15450
C          6.65940       -1.33460        4.65480
C          7.04757       -1.40870        6.00765
C          8.15593       -0.69831        6.47784
C          8.91741        0.11166        5.61787
C         10.09280        0.82892        6.19980
C         10.85796        0.43538        7.23410
F         10.65272       -0.71648        7.91875
F         11.88848        1.22936        7.62626
C          8.52983        0.19572        4.26748
C          7.42267       -0.51342        3.79829
C          5.18650       -3.35590        4.74740
C          4.10102       -4.12353        4.27146
C          3.79713       -5.36586        4.83464
C          4.56236       -5.88110        5.88420
O          4.23416       -7.09976        6.38627
C          5.11604       -8.00368        6.94215
C          5.64169       -5.12485        6.37513
C          5.94632       -3.88243        5.81536
C          4.59239       -0.16912        2.84830
C          3.82498        0.33118        1.79271
H          1.21447       -0.27276       -1.76521
H          1.00367       -1.55050       -0.51061
H          2.47339       -1.55023       -1.58614
H          2.82455       -2.61280        0.41839
H          4.14897       -3.50026        2.26092
H          6.50683       -2.03300        6.70650
H          8.42417       -0.79009        7.52321
H         10.36108        1.77850        5.74395
H          9.05661        0.79954        3.55078
H          7.15837       -0.40442        2.75516
H          3.49402       -3.77770        3.44578
H          2.96437       -5.93731        4.44404
H          4.55769       -8.90894        7.25660
H          5.60949       -7.56297        7.83433
H          5.87991       -8.30215        6.19231
H          6.25472       -5.48731        7.18926
H          6.77849       -3.32947        6.23027
H          5.08286        0.54127        3.50001
H          3.74244        1.40352        1.67760
46

C          1.68561        1.06105       -0.15705
O          2.41248       -0.11128       -0.13021
C          3.17724       -0.54681        0.90509
C          3.31931       -1.92392        1.09180
C          4.08642       -2.42681        2.14643
C          4.73780       -1.55950        3.05070
N          5.52090       -2.07730        4.15450
C          6.65940       -1.33460        4.65480
C          7.04757       -1.40870        6.00765
C          8.15593       -0.69831        6.47784
C          8.91741        0.11166        5.61787
C         10.09280        0.82892        6.19980
C         10.85796        0.43538        7.23410
F         10.65272       -0.71648        7.91875
F         11.88848        1.22936        7.62626
C          8.52983        0.19572        4.26748
C          7.42267       -0.51342        3.79829
C          5.18650       -3.35590        4.74740
C          4.10102       -4.12353        4.27146
C          3.79713       -5.36586        4.83464
C          4.56236       -5.88110        5.88420
O          4.23416       -7.09976        6.38627
C          5.11604       -8.00368        6.94215
C          5.64169       -5.12485        6.37513
C          5.94632       -3.88243        5.81536
C          4.59239       -0.16912        2.84830
C          3.82498        0.33118        1.79271
H          1.16050        1.13986       -1.13107
H          2.36091        1.93595       -0.04649
H          0.92654        1.05942        0.65432
H          2.82455       -2.61280        0.41839
H          4.14897       -3.50026        2.26092
H          6.50683       -2.03300        6.70650
H          8.42417       -0.79009        7.52321
H         10.36108        1.77850        5.74395
H          9.05661        0.79954        3.55078
H          7.15837       -0.40442        2.75516
H          3.49402       -3.77770        3.44578
H          2.96437       -5.93731        4.44404
H          4.55769       -8.90894        7.25660
H          5.60949       -7.56297        7.83433
H          5.87991       -8.30215        6.19231
H          6.25472       -5.48731        7.18926
H          6.77849       -3.32947        6.23027
H          5.08286        0.54127        3.50001
H          3.74244        1.40352        1.67760
46

C          1.87869       -0.77168       -1.15378
O          2.53569       -0.04156       -0.18492
C          3.22321       -0.55780        0.86732
C          4.31290        0.16087        1.36488
C          5.06117       -0.32829        2.43932
C          4.73780       -1.55950        3.05070
N          5.52090       -2.07730        4.15450
C          6.65940       -1.33460        4.65480
C          7.04757       -1.40870        6.00765
C          8.15593       -0.69831        6.47784
C          8.91741        0.11166        5.61787
C         10.09280        0.82892        6.19980
C         11.23442        1.16624        5.57288
F         11.48205        0.88468        4.27017
F         12.19947        1.81687        6.27399
C          8.52983        0.19572        4.26748
C          7.42267       -0.51342        3.79829
C          5.18650       -3.35590        4.74740
C          6.17886       -4.17949        5.32269
C          5.84592       -5.40232        5.91155
C          4.51961       -5.84081        5.94698
O          4.24733       -7.02995        6.54424
C          3.07190       -7.35412        7.19005
C          3.52065       -5.03586        5.37076
C          3.85093       -3.81445        4.78014
C          3.63009       -2.27431        2.54345
C          2.88330       -1.78279        1.46912
H          1.41634       -0.07425       -1.88213
H          1.07668       -1.38780       -0.69457
H          2.59767       -1.42278       -1.69568
H          4.58881        1.10438        0.91047
H          5.90773        0.25492        2.77474
H          6.50683       -2.03300        6.70650
H          8.42417       -0.79009        7.52321
H         10.02597        1.10700        7.24846
H          9.05661        0.79954        3.55078
H          7.15837       -0.40442        2.75516
H          7.21579       -3.87249        5.34047
H          6.62609       -6.00971        6.35315
H          3.14624       -8.38937        7.58101
H          2.21621       -7.30176        6.48382
H          2.90347       -6.66458        8.04503
H          2.48343       -5.34268        5.37410
H          3.05288       -3.23180        4.33961
H          3.32681       -3.21444        2.98403
H          2.04356       -2.36533        1.11490
46

C          3.06141        0.76635       -1.17198
O          2.53569       -0.04156       -0.18492
C          3.22321       -0.55780        0.86732
C          4.31290        0.16087        1.36488
C          5.06117       -0.32829        2.43932
C          4.73780       -1.55950        3.05070
N          5.52090       -2.07730        4.15450
C          6.65940       -1.33460        4.65480
C          7.04757       -1.40870        6.00765
C          8.15593       -0.69831        6.47784
C          8.91741        0.11166        5.61787
C         10.09280        0.82892        6.19980
C         11.23442        1.16624        5.57288
F         11.48205        0.88468        4.27017
F         12.19947        1.81687        6.27399
C          8.52983        0.19572        4.26748
C          7.42267       -0.51342        3.79829
C          5.18650       -3.35590        4.74740
C          6.17886       -4.17949        5.32269
C          5.84592       -5.40232        5.91155
C          4.51961       -5.84081        5.94698
O          4.24733       -7.02995        6.54424
C          3.07190       -7.35412        7.19005
C          3.52065       -5.03586        5.37076
C          3.85093       -3.81445        4.78014
C          3.63009       -2.27431        2.54345
C          2.88330       -1.78279        1.46912
H          2.25780        1.03245       -1.88897
H          3.86407        0.23056       -1.72185
H          3.46221        1.70239       -0.72733
H          4.58881        1.10438        0.91047
H          5.90773        0.25492        2.77474
H          6.50683       -2.03300        6.70650
H          8.42417       -0.79009        7.52321
H         10.02597        1.10700        7.24846
H          9.05661        0.79954        3.55078
H          7.15837       -0.40442        2.75516
H          7.21579       -3.87249        5.34047
H          6.62609       -6.00971        6.35315
H          3.14624       -8.38937        7.58101
H          2.21621       -7.30176        6.48382
H          2.90347       -6.66458        8.04503
H          2.48343       -5.34268        5.37410
H          3.05288       -3.23180        4.33961
H          3.32681       -3.21444        2.98403
H          2.04356       -2.36533        1.11490
46

C          1.68561        1.06105       -0.15705
O          2.41248       -0.11128       -0.13021
C          3.17724       -0.54681        0.90509
C          3.31931       -1.92392        1.09180
C          4.08642       -2.42681        2.14643
C          4.73780       -1.55950        3.05070
N          5.52090       -2.07730        4.15450
C          6.65940       -1.33460        4.65480
C          7.04757       -1.40870        6.00765
C          8.15593       -0.69831        6.47784
C          8.91741        0.11166        5.61787
C         10.09280        0.82892        6.19980
C         11.23442        1.16624        5.57288
F         11.48205        0.88468        4.27017
F         12.19947        1.81687        6.27399
C          8.52983        0.19572        4.26748
C          7.42267       -0.51342        3.79829
C          5.18650       -3.35590        4.74740
C          4.10102       -4.12353        4.27146
C          3.79713       -5.36586        4.83464
C          4.56236       -5.88110        5.88420
O          4.23416       -7.09976        6.38627
C          5.11604       -8.00368        6.94215
C          5.64169       -5.12485        6.37513
C          5.94632       -3.88243        5.81536
C          4.59239       -0.16912        2.84830
C          3.82498        0.33118        1.79271
H          1.16050        1.13986       -1.13107
H          2.36091        1.93595       -0.04649
H          0.92654        1.05942        0.65432
H          2.82455       -2.61280        0.41839
H          4.14897       -3.50026        2.26092
H          6.50683       -2.03300        6.70650
H          8.42417       -0.79009        7.52321
H         10.02597        1.10700        7.24846
H          9.05661        0.79954        3.55078
H          7.15837       -0.40442        2.75516
H          3.49402       -3.77770        3.44578
H          2.96437       -5.93731        4.44404
H          4.55769       -8.90894        7.25660
H          5.60949       -7.56297        7.83433
H          5.87991       -8.30215        6.19231
H          6.25472       -5.48731        7.18926
H          6.77849       -3.32947        6.23027
H          5.08286        0.54127        3.50001
H          3.74244        1.40352        1.67760
46

C          1.32997       -0.77679       -0.66750
O          2.41248       -0.11128       -0.13021
C          3.17724       -0.54681        0.90509
C          3.31931       -1.92392        1.09180
C          4.08642       -2.42681        2.14643
C          4.73780       -1.55950        3.05070
N          5.52090       -2.07730        4.15450
C          6.65940       -1.33460        4.65480
C          7.03629       -0.09959        4.08993
C          8.12879        0.61590        4.58865
C          8.88546        0.12717        5.66756
C         10.03118        0.95998        6.14548
C         10.43565        2.14696        5.65804
F          9.83061        2.77249        4.61867
F         11.50988        2.75631        6.22452
C          8.51855       -1.10942        6.23063
C          7.42781       -1.82396        5.73211
C          5.18650       -3.35590        4.74740
C          6.17886       -4.17949        5.32269
C          5.84592       -5.40232        5.91155
C          4.51961       -5.84081        5.94698
O          4.24733       -7.02995        6.54424
C          3.07190       -7.35412        7.19005
C          3.52065       -5.03586        5.37076
C          3.85093       -3.81445        4.78014
C          4.59239       -0.16912        2.84830
C          3.82498        0.33118        1.79271
H          0.91357       -0.17691       -1.50261
H          0.53958       -0.91095        0.10125
H          1.64704       -1.76438       -1.06582
H          2.82455       -2.61280        0.41839
H          4.14897       -3.50026        2.26092
H          6.47526        0.32991        3.27059
H          8.37895        1.56483        4.13023
H         10.60989        0.56490        6.97643
H          9.05221       -1.55230        7.05211
H          7.19527       -2.77542        6.19094
H          7.21579       -3.87249        5.34047
H          6.62609       -6.00971        6.35315
H          3.14624       -8.38937        7.58101
H          2.21621       -7.30176        6.48382
H          2.90347       -6.66458        8.04503
H          2.48343       -5.34268        5.37410
H          3.05288       -3.23180        4.33961
H          5.08286        0.54127        3.50001
H          3.74244        1.40352        1.67760
46

C          1.74836       -0.91428       -1.03439
O          2.41248       -0.11128       -0.13021
C          3.17724       -0.54681        0.90509
C          3.31931       -1.92392        1.09180
C          4.08642       -2.42681        2.14643
C          4.73780       -1.55950        3.05070
N          5.52090       -2.07730        4.15450
C          6.65940       -1.33460        4.65480
C          7.03629       -0.09959        4.08993
C          8.12879        0.61590        4.58865
C          8.88546        0.12717        5.66756
C         10.03118        0.95998        6.14548
C         10.00648        1.91265        7.09518
F          8.88608        2.26110        7.77411
F         11.15699        2.57148        7.39256
C          8.51855       -1.10942        6.23063
C          7.42781       -1.82396        5.73211
C          5.18650       -3.35590        4.74740
C          6.17886       -4.17949        5.32269
C          5.84592       -5.40232        5.91155
C          4.51961       -5.84081        5.94698
O          4.24733       -7.02995        6.54424
C          3.07190       -7.35412        7.19005
C          3.52065       -5.03586        5.37076
C          3.85093       -3.81445        4.78014
C          4.59239       -0.16912        2.84830
C          3.82498        0.33118        1.79271
H          1.21447       -0.27276       -1.76521
H          1.00367       -1.55050       -0.51061
H          2.47339       -1.55023       -1.58614
H          2.82455       -2.61280        0.41839
H          4.14897       -3.50026        2.26092
H          6.47526        0.32991        3.27059
H          8.37895        1.56483        4.13023
H         10.99402        0.78474        5.67250
H          9.05221       -1.55230        7.05211
H          7.19527       -2.77542        6.19094
H          7.21579       -3.87249        5.34047
H          6.62609       -6.00971        6.35315
H          3.14624       -8.38937        7.58101
H          2.21621       -7.30176        6.48382
H          2.90347       -6.66458        8.04503
H          2.48343       -5.34268        5.37410
H          3.05288       -3.23180        4.33961
H          5.08286        0.54127        3.50001
H          3.74244        1.40352        1.67760
