
 OpenBabel02032210593D

 31 33  0  0  0  0  0  0  0  0999 V2000
    1.4214    1.5238   -0.2454 C   0  0  0  0  0  0  0  0  0  0  0  0
    2.6480    1.5837   -0.7811 C   0  0  0  0  0  0  0  0  0  0  0  0
    3.1180    0.6312   -1.7336 C   0  0  0  0  0  0  0  0  0  0  0  0
    2.5081   -0.4882   -2.2724 C   0  0  0  0  0  0  0  0  0  0  0  0
    3.3260   -1.1762   -3.2156 C   0  0  0  0  0  0  0  0  0  0  0  0
    4.5529   -0.5714   -3.4020 C   0  0  0  0  0  0  0  0  0  0  0  0
    5.6073   -0.9748   -4.3071 C   0  0  0  0  0  0  0  0  0  0  0  0
    6.5935   -0.1842   -4.8643 C   0  0  0  0  0  0  0  0  0  0  0  0
    7.4411   -0.9055   -5.7558 C   0  0  0  0  0  0  0  0  0  0  0  0
    7.1101   -2.2446   -5.8459 C   0  0  0  0  0  0  0  0  0  0  0  0
    7.7658   -3.2633   -6.6383 C   0  0  0  0  0  0  0  0  0  0  0  0
    7.8019   -4.6248   -6.4153 C   0  0  0  0  0  0  0  0  0  0  0  0
    8.6012   -5.3191   -7.3732 C   0  0  0  0  0  0  0  0  0  0  0  0
    9.1557   -4.4856   -8.3287 C   0  0  0  0  0  0  0  0  0  0  0  0
   10.0267   -4.7584   -9.4235 C   0  0  0  0  0  0  0  0  0  0  0  0
   10.5266   -5.9756   -9.6685 C   0  0  0  0  0  0  0  0  0  0  0  0
    8.6481   -2.8632   -8.0534 S   0  0  0  0  0  0  0  0  0  0  0  0
    5.7613   -2.5981   -4.8478 S   0  0  0  0  0  0  0  0  0  0  0  0
    4.6996    0.8100   -2.3952 S   0  0  0  0  0  0  0  0  0  0  0  0
    1.1027    2.2730    0.4724 H   0  0  0  0  0  0  0  0  0  0  0  0
    0.7002    0.7511   -0.4922 H   0  0  0  0  0  0  0  0  0  0  0  0
    3.3083    2.3939   -0.4819 H   0  0  0  0  0  0  0  0  0  0  0  0
    1.5075   -0.8089   -2.0138 H   0  0  0  0  0  0  0  0  0  0  0  0
    3.0054   -2.0643   -3.7459 H   0  0  0  0  0  0  0  0  0  0  0  0
    6.7006    0.8757   -4.6669 H   0  0  0  0  0  0  0  0  0  0  0  0
    8.2631   -0.4519   -6.2958 H   0  0  0  0  0  0  0  0  0  0  0  0
    7.3086   -5.1138   -5.5837 H   0  0  0  0  0  0  0  0  0  0  0  0
    8.7691   -6.3886   -7.3406 H   0  0  0  0  0  0  0  0  0  0  0  0
   10.3100   -3.9383  -10.0810 H   0  0  0  0  0  0  0  0  0  0  0  0
   10.3031   -6.8448   -9.0604 H   0  0  0  0  0  0  0  0  0  0  0  0
   11.1979   -6.1277  -10.5087 H   0  0  0  0  0  0  0  0  0  0  0  0
  1  2  2  0  0  0  0
  1 20  1  0  0  0  0
  1 21  1  0  0  0  0
  2  3  1  0  0  0  0
  2 22  1  0  0  0  0
  3  4  2  0  0  0  0
  3 19  1  0  0  0  0
  4  5  1  0  0  0  0
  4 23  1  0  0  0  0
  5  6  2  0  0  0  0
  5 24  1  0  0  0  0
  6  7  1  0  0  0  0
  6 19  1  0  0  0  0
  7  8  2  0  0  0  0
  7 18  1  0  0  0  0
  8  9  1  0  0  0  0
  8 25  1  0  0  0  0
  9 10  2  0  0  0  0
  9 26  1  0  0  0  0
 10 11  1  0  0  0  0
 10 18  1  0  0  0  0
 11 12  2  0  0  0  0
 11 17  1  0  0  0  0
 12 13  1  0  0  0  0
 12 27  1  0  0  0  0
 13 14  2  0  0  0  0
 13 28  1  0  0  0  0
 14 15  1  0  0  0  0
 14 17  1  0  0  0  0
 15 16  2  0  0  0  0
 15 29  1  0  0  0  0
 16 30  1  0  0  0  0
 16 31  1  0  0  0  0
M  END
