
  xtb     02032211353D
 xtb: 6.4.1 (23d549d)
 47 47  0     0  0            999 V2000
    1.7862   -3.7302    2.6670 C   0  0  0  0  0  0  0  0  0  0  0  0
    2.7028   -3.1873    1.8690 C   0  0  0  0  0  0  0  0  0  0  0  0
    2.6856   -1.8339    1.3836 C   0  0  0  0  0  0  0  0  0  0  0  0
    1.7861   -0.8236    1.6119 C   0  0  0  0  0  0  0  0  0  0  0  0
    2.0989    0.3837    0.9623 C   0  0  0  0  0  0  0  0  0  0  0  0
    1.2295    1.6003    1.0419 C   0  0  0  0  0  0  0  0  0  0  0  0
    0.3445    1.7468   -0.2036 C   0  0  0  0  0  0  0  0  0  0  0  0
   -0.6569    0.6028   -0.3376 C   0  0  0  0  0  0  0  0  0  0  0  0
   -1.5313    0.7633   -1.5785 C   0  0  0  0  0  0  0  0  0  0  0  0
   -2.4686   -0.4213   -1.8163 C   0  0  0  0  0  0  0  0  0  0  0  0
   -3.4912   -0.6720   -0.7051 C   0  0  0  0  0  0  0  0  0  0  0  0
   -4.4059    0.5103   -0.3803 C   0  0  0  0  0  0  0  0  0  0  0  0
   -5.2793    0.9384   -1.5575 C   0  0  0  0  0  0  0  0  0  0  0  0
   -6.2323    2.0843   -1.2127 C   0  0  0  0  0  0  0  0  0  0  0  0
   -7.3545    1.6739   -0.2662 C   0  0  0  0  0  0  0  0  0  0  0  0
    3.2578    0.2994    0.2177 C   0  0  0  0  0  0  0  0  0  0  0  0
    3.8778    1.3295   -0.5680 C   0  0  0  0  0  0  0  0  0  0  0  0
    4.9624    1.1659   -1.3215 C   0  0  0  0  0  0  0  0  0  0  0  0
    3.9587   -1.2888    0.3346 S   0  0  0  0  0  0  0  0  0  0  0  0
    1.8635   -4.7523    2.9927 H   0  0  0  0  0  0  0  0  0  0  0  0
    0.9334   -3.1769    3.0202 H   0  0  0  0  0  0  0  0  0  0  0  0
    3.5449   -3.7804    1.5360 H   0  0  0  0  0  0  0  0  0  0  0  0
    0.9181   -0.9411    2.2358 H   0  0  0  0  0  0  0  0  0  0  0  0
    1.8484    2.4940    1.1497 H   0  0  0  0  0  0  0  0  0  0  0  0
    0.5931    1.5244    1.9260 H   0  0  0  0  0  0  0  0  0  0  0  0
    0.9776    1.7787   -1.0932 H   0  0  0  0  0  0  0  0  0  0  0  0
   -0.1962    2.6946   -0.1429 H   0  0  0  0  0  0  0  0  0  0  0  0
   -1.2841    0.5752    0.5553 H   0  0  0  0  0  0  0  0  0  0  0  0
   -0.1176   -0.3453   -0.3983 H   0  0  0  0  0  0  0  0  0  0  0  0
   -0.8821    0.8642   -2.4525 H   0  0  0  0  0  0  0  0  0  0  0  0
   -2.1108    1.6849   -1.4990 H   0  0  0  0  0  0  0  0  0  0  0  0
   -1.8652   -1.3259   -1.9296 H   0  0  0  0  0  0  0  0  0  0  0  0
   -2.9950   -0.2647   -2.7599 H   0  0  0  0  0  0  0  0  0  0  0  0
   -2.9636   -0.9640    0.2054 H   0  0  0  0  0  0  0  0  0  0  0  0
   -4.1117   -1.5211   -1.0037 H   0  0  0  0  0  0  0  0  0  0  0  0
   -3.8088    1.3609   -0.0465 H   0  0  0  0  0  0  0  0  0  0  0  0
   -5.0465    0.2151    0.4531 H   0  0  0  0  0  0  0  0  0  0  0  0
   -5.8595    0.0811   -1.9072 H   0  0  0  0  0  0  0  0  0  0  0  0
   -4.6379    1.2625   -2.3792 H   0  0  0  0  0  0  0  0  0  0  0  0
   -6.6763    2.4577   -2.1388 H   0  0  0  0  0  0  0  0  0  0  0  0
   -5.6632    2.9039   -0.7672 H   0  0  0  0  0  0  0  0  0  0  0  0
   -7.9166    0.8406   -0.6827 H   0  0  0  0  0  0  0  0  0  0  0  0
   -8.0392    2.5047   -0.1102 H   0  0  0  0  0  0  0  0  0  0  0  0
   -6.9623    1.3742    0.7021 H   0  0  0  0  0  0  0  0  0  0  0  0
    3.3976    2.2980   -0.5182 H   0  0  0  0  0  0  0  0  0  0  0  0
    5.4576    0.2116   -1.3948 H   0  0  0  0  0  0  0  0  0  0  0  0
    5.3856    1.9771   -1.8870 H   0  0  0  0  0  0  0  0  0  0  0  0
  1  2  2  0  0  0  0
  2  3  1  0  0  0  0
  3  4  4  0  0  0  0
  4  5  4  0  0  0  0
  5  6  1  0  0  0  0
  6  7  1  0  0  0  0
  7  8  1  0  0  0  0
  8  9  1  0  0  0  0
  9 10  1  0  0  0  0
 10 11  1  0  0  0  0
 11 12  1  0  0  0  0
 12 13  1  0  0  0  0
 13 14  1  0  0  0  0
 14 15  1  0  0  0  0
  5 16  4  0  0  0  0
 16 17  1  0  0  0  0
 17 18  2  0  0  0  0
  3 19  1  0  0  0  0
 16 19  1  0  0  0  0
  1 20  1  0  0  0  0
  1 21  1  0  0  0  0
  2 22  1  0  0  0  0
  4 23  1  0  0  0  0
  6 24  1  0  0  0  0
  6 25  1  0  0  0  0
  7 26  1  0  0  0  0
  7 27  1  0  0  0  0
  8 28  1  0  0  0  0
  8 29  1  0  0  0  0
  9 30  1  0  0  0  0
  9 31  1  0  0  0  0
 10 32  1  0  0  0  0
 10 33  1  0  0  0  0
 11 34  1  0  0  0  0
 11 35  1  0  0  0  0
 12 36  1  0  0  0  0
 12 37  1  0  0  0  0
 13 38  1  0  0  0  0
 13 39  1  0  0  0  0
 14 40  1  0  0  0  0
 14 41  1  0  0  0  0
 15 42  1  0  0  0  0
 15 43  1  0  0  0  0
 15 44  1  0  0  0  0
 17 45  1  0  0  0  0
 18 46  1  0  0  0  0
 18 47  1  0  0  0  0
M  END
