21

C          2.37193        0.54302       -1.13839
C          2.15770        0.00530        0.07100
C          2.98880       -1.07310        0.69690
C          4.10030       -0.77160        1.50610
C          4.83970       -1.78570        2.10300
F          5.90300       -1.47530        2.88550
C          4.49950       -3.11690        1.89520
C          3.41410       -3.47540        1.07740
C          3.20640       -4.94940        0.91160
C          2.44759       -5.74937        1.67218
C          2.63300       -2.43190        0.48740
O          1.51530       -2.67560       -0.23230
H          1.70963        1.32454       -1.49776
H          3.18285        0.24491       -1.78820
H          1.31277        0.40062        0.62637
H          4.40940        0.24370        1.69770
H          5.10910       -3.87990        2.36590
H          3.66752       -5.42255        0.04772
H          1.86050       -5.40947        2.51027
H          2.36626       -6.80117        1.41529
H          1.02590       -3.50280       -0.23180
21

C          1.07775        0.57127        0.62873
C          2.15770        0.00530        0.07100
C          2.98880       -1.07310        0.69690
C          4.10030       -0.77160        1.50610
C          4.83970       -1.78570        2.10300
F          5.90300       -1.47530        2.88550
C          4.49950       -3.11690        1.89520
C          3.41410       -3.47540        1.07740
C          3.20640       -4.94940        0.91160
C          3.73067       -5.73806       -0.03570
C          2.63300       -2.43190        0.48740
O          1.51530       -2.67560       -0.23230
H          0.54303        1.34499        0.08654
H          0.69539        0.29527        1.60154
H          2.43145        0.36823       -0.91488
H          4.40940        0.24370        1.69770
H          5.10910       -3.87990        2.36590
H          2.61722       -5.45722        1.67171
H          4.40394       -5.39497       -0.80485
H          3.51558       -6.80213       -0.01598
H          1.02590       -3.50280       -0.23180
21

C          1.07775        0.57127        0.62873
C          2.15770        0.00530        0.07100
C          2.98880       -1.07310        0.69690
C          4.10030       -0.77160        1.50610
C          4.83970       -1.78570        2.10300
F          5.90300       -1.47530        2.88550
C          4.49950       -3.11690        1.89520
C          3.41410       -3.47540        1.07740
C          3.20640       -4.94940        0.91160
C          2.69275       -5.57855       -0.15356
C          2.63300       -2.43190        0.48740
O          1.51530       -2.67560       -0.23230
H          0.54303        1.34499        0.08654
H          0.69539        0.29527        1.60154
H          2.43145        0.36823       -0.91488
H          4.40940        0.24370        1.69770
H          5.10910       -3.87990        2.36590
H          3.56330       -5.59493        1.71078
H          2.37654       -5.08100       -1.05636
H          2.62795       -6.66236       -0.14658
H          1.02590       -3.50280       -0.23180
21

C          2.37193        0.54302       -1.13839
C          2.15770        0.00530        0.07100
C          2.98880       -1.07310        0.69690
C          4.10030       -0.77160        1.50610
C          4.83970       -1.78570        2.10300
F          5.90300       -1.47530        2.88550
C          4.49950       -3.11690        1.89520
C          3.41410       -3.47540        1.07740
C          3.20640       -4.94940        0.91160
C          3.73067       -5.73806       -0.03570
C          2.63300       -2.43190        0.48740
O          1.51530       -2.67560       -0.23230
H          1.70963        1.32454       -1.49776
H          3.18285        0.24491       -1.78820
H          1.31277        0.40062        0.62637
H          4.40940        0.24370        1.69770
H          5.10910       -3.87990        2.36590
H          2.61722       -5.45722        1.67171
H          4.40394       -5.39497       -0.80485
H          3.51558       -6.80213       -0.01598
H          1.02590       -3.50280       -0.23180
21

C          1.07775        0.57127        0.62873
C          2.15770        0.00530        0.07100
C          2.98880       -1.07310        0.69690
C          4.10030       -0.77160        1.50610
C          4.83970       -1.78570        2.10300
F          5.90300       -1.47530        2.88550
C          4.49950       -3.11690        1.89520
C          3.41410       -3.47540        1.07740
C          3.20640       -4.94940        0.91160
C          2.04437       -5.58427        0.70950
C          2.63300       -2.43190        0.48740
O          1.51530       -2.67560       -0.23230
H          0.54303        1.34499        0.08654
H          0.69539        0.29527        1.60154
H          2.43145        0.36823       -0.91488
H          4.40940        0.24370        1.69770
H          5.10910       -3.87990        2.36590
H          4.09405       -5.57741        0.89013
H          1.09125       -5.08832        0.61889
H          2.04716       -6.66188        0.57669
H          1.02590       -3.50280       -0.23180
21

C          1.07775        0.57127        0.62873
C          2.15770        0.00530        0.07100
C          2.98880       -1.07310        0.69690
C          4.10030       -0.77160        1.50610
C          4.83970       -1.78570        2.10300
F          5.90300       -1.47530        2.88550
C          4.49950       -3.11690        1.89520
C          3.41410       -3.47540        1.07740
C          3.20640       -4.94940        0.91160
C          2.44759       -5.74937        1.67218
C          2.63300       -2.43190        0.48740
O          1.51530       -2.67560       -0.23230
H          0.54303        1.34499        0.08654
H          0.69539        0.29527        1.60154
H          2.43145        0.36823       -0.91488
H          4.40940        0.24370        1.69770
H          5.10910       -3.87990        2.36590
H          3.66752       -5.42255        0.04772
H          1.86050       -5.40947        2.51027
H          2.36626       -6.80117        1.41529
H          1.02590       -3.50280       -0.23180
21

C          1.50198       -0.10143       -1.09361
C          2.15770        0.00530        0.07100
C          2.98880       -1.07310        0.69690
C          4.10030       -0.77160        1.50610
C          4.83970       -1.78570        2.10300
F          5.90300       -1.47530        2.88550
C          4.49950       -3.11690        1.89520
C          3.41410       -3.47540        1.07740
C          3.20640       -4.94940        0.91160
C          2.44759       -5.74937        1.67218
C          2.63300       -2.43190        0.48740
O          1.51530       -2.67560       -0.23230
H          0.92899        0.74442       -1.46071
H          1.51356       -0.99313       -1.70472
H          2.07042        0.95899        0.58236
H          4.40940        0.24370        1.69770
H          5.10910       -3.87990        2.36590
H          3.66752       -5.42255        0.04772
H          1.86050       -5.40947        2.51027
H          2.36626       -6.80117        1.41529
H          1.02590       -3.50280       -0.23180
21

C          1.50198       -0.10143       -1.09361
C          2.15770        0.00530        0.07100
C          2.98880       -1.07310        0.69690
C          4.10030       -0.77160        1.50610
C          4.83970       -1.78570        2.10300
F          5.90300       -1.47530        2.88550
C          4.49950       -3.11690        1.89520
C          3.41410       -3.47540        1.07740
C          3.20640       -4.94940        0.91160
C          3.73067       -5.73806       -0.03570
C          2.63300       -2.43190        0.48740
O          1.51530       -2.67560       -0.23230
H          0.92899        0.74442       -1.46071
H          1.51356       -0.99313       -1.70472
H          2.07042        0.95899        0.58236
H          4.40940        0.24370        1.69770
H          5.10910       -3.87990        2.36590
H          2.61722       -5.45722        1.67171
H          4.40394       -5.39497       -0.80485
H          3.51558       -6.80213       -0.01598
H          1.02590       -3.50280       -0.23180
21

C          1.50198       -0.10143       -1.09361
C          2.15770        0.00530        0.07100
C          2.98880       -1.07310        0.69690
C          4.10030       -0.77160        1.50610
C          4.83970       -1.78570        2.10300
F          5.90300       -1.47530        2.88550
C          4.49950       -3.11690        1.89520
C          3.41410       -3.47540        1.07740
C          3.20640       -4.94940        0.91160
C          2.04437       -5.58427        0.70950
C          2.63300       -2.43190        0.48740
O          1.51530       -2.67560       -0.23230
H          0.92899        0.74442       -1.46071
H          1.51356       -0.99313       -1.70472
H          2.07042        0.95899        0.58236
H          4.40940        0.24370        1.69770
H          5.10910       -3.87990        2.36590
H          4.09405       -5.57741        0.89013
H          1.09125       -5.08832        0.61889
H          2.04716       -6.66188        0.57669
H          1.02590       -3.50280       -0.23180
21

C          2.37193        0.54302       -1.13839
C          2.15770        0.00530        0.07100
C          2.98880       -1.07310        0.69690
C          4.10030       -0.77160        1.50610
C          4.83970       -1.78570        2.10300
F          5.90300       -1.47530        2.88550
C          4.49950       -3.11690        1.89520
C          3.41410       -3.47540        1.07740
C          3.20640       -4.94940        0.91160
C          2.04437       -5.58427        0.70950
C          2.63300       -2.43190        0.48740
O          1.51530       -2.67560       -0.23230
H          1.70963        1.32454       -1.49776
H          3.18285        0.24491       -1.78820
H          1.31277        0.40062        0.62637
H          4.40940        0.24370        1.69770
H          5.10910       -3.87990        2.36590
H          4.09405       -5.57741        0.89013
H          1.09125       -5.08832        0.61889
H          2.04716       -6.66188        0.57669
H          1.02590       -3.50280       -0.23180
