
  xtb     02032211353D
 xtb: 6.4.1 (23d549d)
 24 24  0     0  0            999 V2000
    4.3704   -0.1047    0.4203 C   0  0  0  0  0  0  0  0  0  0  0  0
    3.2201   -0.6792    0.0888 C   0  0  0  0  0  0  0  0  0  0  0  0
    1.9190   -0.0311   -0.0050 C   0  0  0  0  0  0  0  0  0  0  0  0
    1.7119    1.3214    0.2732 C   0  0  0  0  0  0  0  0  0  0  0  0
    0.4547    1.8709    0.1675 C   0  0  0  0  0  0  0  0  0  0  0  0
   -0.6571    1.1057   -0.1944 C   0  0  0  0  0  0  0  0  0  0  0  0
   -1.9585    1.7759   -0.2371 C   0  0  0  0  0  0  0  0  0  0  0  0
   -3.1024    1.2913    0.2266 C   0  0  0  0  0  0  0  0  0  0  0  0
   -0.4539   -0.2425   -0.5063 C   0  0  0  0  0  0  0  0  0  0  0  0
   -1.5754   -1.1338   -0.9903 C   0  0  0  0  0  0  0  0  0  0  0  0
   -2.1249   -1.8735    0.1186 C   0  0  0  0  0  0  0  0  0  0  0  0
   -2.5404   -2.4552    1.0109 N   0  0  0  0  0  0  0  0  0  0  0  0
    0.8170   -0.7851   -0.4042 C   0  0  0  0  0  0  0  0  0  0  0  0
    5.2850   -0.6707    0.4634 H   0  0  0  0  0  0  0  0  0  0  0  0
    4.4535    0.9411    0.6609 H   0  0  0  0  0  0  0  0  0  0  0  0
    3.2116   -1.7378   -0.1418 H   0  0  0  0  0  0  0  0  0  0  0  0
    2.5386    1.9464    0.5719 H   0  0  0  0  0  0  0  0  0  0  0  0
    0.3099    2.9188    0.3893 H   0  0  0  0  0  0  0  0  0  0  0  0
   -1.9315    2.7824   -0.6390 H   0  0  0  0  0  0  0  0  0  0  0  0
   -3.1763    0.3255    0.6981 H   0  0  0  0  0  0  0  0  0  0  0  0
   -4.0113    1.8681    0.1847 H   0  0  0  0  0  0  0  0  0  0  0  0
   -1.1943   -1.8533   -1.7214 H   0  0  0  0  0  0  0  0  0  0  0  0
   -2.3729   -0.5440   -1.4500 H   0  0  0  0  0  0  0  0  0  0  0  0
    0.9595   -1.8307   -0.6444 H   0  0  0  0  0  0  0  0  0  0  0  0
  1  2  2  0  0  0  0
  2  3  1  0  0  0  0
  3  4  4  0  0  0  0
  4  5  4  0  0  0  0
  5  6  4  0  0  0  0
  6  7  1  0  0  0  0
  7  8  2  0  0  0  0
  6  9  4  0  0  0  0
  9 10  1  0  0  0  0
 10 11  1  0  0  0  0
 11 12  3  0  0  0  0
  3 13  4  0  0  0  0
  9 13  4  0  0  0  0
  1 14  1  0  0  0  0
  1 15  1  0  0  0  0
  2 16  1  0  0  0  0
  4 17  1  0  0  0  0
  5 18  1  0  0  0  0
  7 19  1  0  0  0  0
  8 20  1  0  0  0  0
  8 21  1  0  0  0  0
 10 22  1  0  0  0  0
 10 23  1  0  0  0  0
 13 24  1  0  0  0  0
M  END
