
  xtb     02032211343D
 xtb: 6.4.1 (23d549d)
 44 47  0     0  0            999 V2000
   -0.0064    5.1793   -0.1092 C   0  0  0  0  0  0  0  0  0  0  0  0
   -1.3794    4.8880   -0.1806 O   0  0  0  0  0  0  0  0  0  0  0  0
   -1.7730    3.5824   -0.1469 C   0  0  0  0  0  0  0  0  0  0  0  0
   -3.1598    3.3794   -0.2206 C   0  0  0  0  0  0  0  0  0  0  0  0
   -3.7002    2.1152   -0.1764 C   0  0  0  0  0  0  0  0  0  0  0  0
   -0.9028    2.5059   -0.0456 C   0  0  0  0  0  0  0  0  0  0  0  0
   -1.4534    1.2317   -0.0299 C   0  0  0  0  0  0  0  0  0  0  0  0
   -2.8472    1.0226   -0.0752 C   0  0  0  0  0  0  0  0  0  0  0  0
   -3.0527   -0.3952    0.0199 C   0  0  0  0  0  0  0  0  0  0  0  0
   -4.1758   -1.2064    0.0101 C   0  0  0  0  0  0  0  0  0  0  0  0
   -4.0246   -2.5774    0.0989 C   0  0  0  0  0  0  0  0  0  0  0  0
   -2.7533   -3.1521    0.1811 C   0  0  0  0  0  0  0  0  0  0  0  0
   -2.5167   -4.4955    0.2545 O   0  0  0  0  0  0  0  0  0  0  0  0
   -3.6112   -5.3773    0.2350 C   0  0  0  0  0  0  0  0  0  0  0  0
   -1.6116   -2.3537    0.1914 C   0  0  0  0  0  0  0  0  0  0  0  0
   -1.7709   -0.9828    0.1285 C   0  0  0  0  0  0  0  0  0  0  0  0
   -0.8105    0.0126    0.0941 N   0  0  0  0  0  0  0  0  0  0  0  0
    0.5699   -0.1813    0.1670 C   0  0  0  0  0  0  0  0  0  0  0  0
    1.1182   -0.9949    1.1573 C   0  0  0  0  0  0  0  0  0  0  0  0
    2.4818   -1.1817    1.2230 C   0  0  0  0  0  0  0  0  0  0  0  0
    3.3432   -0.5598    0.3146 C   0  0  0  0  0  0  0  0  0  0  0  0
    4.7696   -0.7983    0.4494 C   0  0  0  0  0  0  0  0  0  0  0  0
    5.7633   -0.2898   -0.2650 C   0  0  0  0  0  0  0  0  0  0  0  0
    5.6897    0.5661   -1.2783 F   0  0  0  0  0  0  0  0  0  0  0  0
    7.0434   -0.5852   -0.0436 F   0  0  0  0  0  0  0  0  0  0  0  0
    2.7853    0.2540   -0.6743 C   0  0  0  0  0  0  0  0  0  0  0  0
    1.4204    0.4361   -0.7491 C   0  0  0  0  0  0  0  0  0  0  0  0
    0.0678    6.2647   -0.1560 H   0  0  0  0  0  0  0  0  0  0  0  0
    0.5428    4.7438   -0.9507 H   0  0  0  0  0  0  0  0  0  0  0  0
    0.4326    4.8279    0.8306 H   0  0  0  0  0  0  0  0  0  0  0  0
   -3.7877    4.2521   -0.3009 H   0  0  0  0  0  0  0  0  0  0  0  0
   -4.7691    1.9737   -0.2155 H   0  0  0  0  0  0  0  0  0  0  0  0
    0.1634    2.6411    0.0355 H   0  0  0  0  0  0  0  0  0  0  0  0
   -5.1616   -0.7746   -0.0703 H   0  0  0  0  0  0  0  0  0  0  0  0
   -4.9050   -3.1996    0.0938 H   0  0  0  0  0  0  0  0  0  0  0  0
   -3.1836   -6.3772    0.2944 H   0  0  0  0  0  0  0  0  0  0  0  0
   -4.1868   -5.2860   -0.6919 H   0  0  0  0  0  0  0  0  0  0  0  0
   -4.2740   -5.2177    1.0919 H   0  0  0  0  0  0  0  0  0  0  0  0
   -0.6444   -2.8273    0.2341 H   0  0  0  0  0  0  0  0  0  0  0  0
    0.4684   -1.4630    1.8805 H   0  0  0  0  0  0  0  0  0  0  0  0
    2.8940   -1.8121    1.9972 H   0  0  0  0  0  0  0  0  0  0  0  0
    5.0723   -1.4763    1.2344 H   0  0  0  0  0  0  0  0  0  0  0  0
    3.4163    0.7396   -1.4004 H   0  0  0  0  0  0  0  0  0  0  0  0
    0.9998    1.0437   -1.5359 H   0  0  0  0  0  0  0  0  0  0  0  0
  1  2  1  0  0  0  0
  2  3  1  0  0  0  0
  3  4  4  0  0  0  0
  4  5  4  0  0  0  0
  3  6  4  0  0  0  0
  6  7  4  0  0  0  0
  5  8  4  0  0  0  0
  7  8  4  0  0  0  0
  8  9  1  0  0  0  0
  9 10  4  0  0  0  0
 10 11  4  0  0  0  0
 11 12  4  0  0  0  0
 12 13  1  0  0  0  0
 13 14  1  0  0  0  0
 12 15  4  0  0  0  0
  9 16  4  0  0  0  0
 15 16  4  0  0  0  0
  7 17  1  0  0  0  0
 16 17  1  0  0  0  0
 17 18  1  0  0  0  0
 18 19  4  0  0  0  0
 19 20  4  0  0  0  0
 20 21  4  0  0  0  0
 21 22  1  0  0  0  0
 22 23  2  0  0  0  0
 23 24  1  0  0  0  0
 23 25  1  0  0  0  0
 21 26  4  0  0  0  0
 18 27  4  0  0  0  0
 26 27  4  0  0  0  0
  1 28  1  0  0  0  0
  1 29  1  0  0  0  0
  1 30  1  0  0  0  0
  4 31  1  0  0  0  0
  5 32  1  0  0  0  0
  6 33  1  0  0  0  0
 10 34  1  0  0  0  0
 11 35  1  0  0  0  0
 14 36  1  0  0  0  0
 14 37  1  0  0  0  0
 14 38  1  0  0  0  0
 15 39  1  0  0  0  0
 19 40  1  0  0  0  0
 20 41  1  0  0  0  0
 22 42  1  0  0  0  0
 26 43  1  0  0  0  0
 27 44  1  0  0  0  0
M  END
