
  xtb     02032211223D
 xtb: 6.4.1 (23d549d)
 22 22  0     0  0            999 V2000
    1.5692   -0.8164   -0.5893 c   0  0  0  0  0  0  0  0  0  0  0  0
    2.1204    0.2871   -0.1014 c   0  0  0  0  0  0  0  0  0  0  0  0
    2.7777    0.3848    1.2015 c   0  0  0  0  0  0  0  0  0  0  0  0
    3.9271    1.1707    1.3224 c   0  0  0  0  0  0  0  0  0  0  0  0
    4.6271    1.2804    2.4331 n   0  0  0  0  0  0  0  0  0  0  0  0
    4.2396    0.5987    3.4919 c   0  0  0  0  0  0  0  0  0  0  0  0
    3.1153   -0.2330    3.5196 c   0  0  0  0  0  0  0  0  0  0  0  0
    2.7246   -0.9399    4.7345 c   0  0  0  0  0  0  0  0  0  0  0  0
    3.5768   -1.3466    5.6663 c   0  0  0  0  0  0  0  0  0  0  0  0
    2.3548   -0.3115    2.3428 c   0  0  0  0  0  0  0  0  0  0  0  0
    1.0906   -1.1164    2.3354 c   0  0  0  0  0  0  0  0  0  0  0  0
    1.0241   -2.2701    2.6501 o   0  0  0  0  0  0  0  0  0  0  0  0
   -0.0165   -0.4268    1.9909 o   0  0  0  0  0  0  0  0  0  0  0  0
    1.1340   -0.8385   -1.5735 h   0  0  0  0  0  0  0  0  0  0  0  0
    1.5445   -1.7411   -0.0370 h   0  0  0  0  0  0  0  0  0  0  0  0
    2.1750    1.1825   -0.7083 h   0  0  0  0  0  0  0  0  0  0  0  0
    4.2969    1.7318    0.4743 h   0  0  0  0  0  0  0  0  0  0  0  0
    4.8386    0.7394    4.3805 h   0  0  0  0  0  0  0  0  0  0  0  0
    1.6708   -1.1593    4.8399 h   0  0  0  0  0  0  0  0  0  0  0  0
    4.6403   -1.1966    5.5814 h   0  0  0  0  0  0  0  0  0  0  0  0
    3.2373   -1.8708    6.5423 h   0  0  0  0  0  0  0  0  0  0  0  0
    0.1795    0.4780    1.7141 h   0  0  0  0  0  0  0  0  0  0  0  0
  1  2  2  0  0  0  0
  2  3  1  0  0  0  0
  3  4  4  0  0  0  0
  4  5  4  0  0  0  0
  5  6  4  0  0  0  0
  6  7  4  0  0  0  0
  7  8  1  0  0  0  0
  8  9  2  0  0  0  0
  3 10  4  0  0  0  0
  7 10  4  0  0  0  0
 10 11  1  0  0  0  0
 11 12  2  0  0  0  0
 11 13  1  0  0  0  0
  1 14  1  0  0  0  0
  1 15  1  0  0  0  0
  2 16  1  0  0  0  0
  4 17  1  0  0  0  0
  6 18  1  0  0  0  0
  8 19  1  0  0  0  0
  9 20  1  0  0  0  0
  9 21  1  0  0  0  0
 13 22  1  0  0  0  0
M  END
