
  xtb     02032211353D
 xtb: 6.4.1 (23d549d)
 19 19  0     0  0            999 V2000
    3.6154    0.8773    0.0409 C   0  0  0  0  0  0  0  0  0  0  0  0
    2.8405   -0.1994   -0.0222 C   0  0  0  0  0  0  0  0  0  0  0  0
    1.3865   -0.2206   -0.0144 C   0  0  0  0  0  0  0  0  0  0  0  0
    0.7066   -1.4418   -0.0005 C   0  0  0  0  0  0  0  0  0  0  0  0
   -0.6723   -1.4600    0.0097 C   0  0  0  0  0  0  0  0  0  0  0  0
   -1.3688   -0.2474    0.0037 C   0  0  0  0  0  0  0  0  0  0  0  0
   -2.8251   -0.2240    0.0151 C   0  0  0  0  0  0  0  0  0  0  0  0
   -3.5390    0.8954    0.0034 C   0  0  0  0  0  0  0  0  0  0  0  0
   -0.7237    0.9213   -0.0151 N   0  0  0  0  0  0  0  0  0  0  0  0
    0.5884    0.9302   -0.0240 C   0  0  0  0  0  0  0  0  0  0  0  0
    4.6886    0.7938    0.0307 H   0  0  0  0  0  0  0  0  0  0  0  0
    3.2198    1.8760    0.1076 H   0  0  0  0  0  0  0  0  0  0  0  0
    3.3023   -1.1786   -0.0801 H   0  0  0  0  0  0  0  0  0  0  0  0
    1.2659   -2.3681    0.0043 H   0  0  0  0  0  0  0  0  0  0  0  0
   -1.2123   -2.3953    0.0218 H   0  0  0  0  0  0  0  0  0  0  0  0
   -3.3071   -1.1931    0.0338 H   0  0  0  0  0  0  0  0  0  0  0  0
   -3.0466    1.8522   -0.0155 H   0  0  0  0  0  0  0  0  0  0  0  0
   -4.6154    0.8874    0.0123 H   0  0  0  0  0  0  0  0  0  0  0  0
    1.0357    1.9152   -0.0441 H   0  0  0  0  0  0  0  0  0  0  0  0
  1  2  2  0  0  0  0
  2  3  1  0  0  0  0
  3  4  4  0  0  0  0
  4  5  4  0  0  0  0
  5  6  4  0  0  0  0
  6  7  1  0  0  0  0
  7  8  2  0  0  0  0
  6  9  4  0  0  0  0
  3 10  4  0  0  0  0
  9 10  4  0  0  0  0
  1 11  1  0  0  0  0
  1 12  1  0  0  0  0
  2 13  1  0  0  0  0
  4 14  1  0  0  0  0
  5 15  1  0  0  0  0
  7 16  1  0  0  0  0
  8 17  1  0  0  0  0
  8 18  1  0  0  0  0
 10 19  1  0  0  0  0
M  END
