
  xtb     02032211353D
 xtb: 6.4.1 (23d549d)
 35 35  0     0  0            999 V2000
   -4.1555   -2.6067    0.2748 C   0  0  0  0  0  0  0  0  0  0  0  0
   -2.8419   -2.4156    0.1894 C   0  0  0  0  0  0  0  0  0  0  0  0
   -2.2001   -1.1363    0.0684 C   0  0  0  0  0  0  0  0  0  0  0  0
   -0.8530   -0.8947   -0.0209 C   0  0  0  0  0  0  0  0  0  0  0  0
   -0.5070    0.4653   -0.1392 C   0  0  0  0  0  0  0  0  0  0  0  0
    0.9036    0.9696   -0.2016 C   0  0  0  0  0  0  0  0  0  0  0  0
    1.9407   -0.0146    0.3385 C   0  0  0  0  0  0  0  0  0  0  0  0
    3.3260    0.6261    0.3938 C   0  0  0  0  0  0  0  0  0  0  0  0
    4.3841   -0.2707    1.0386 C   0  0  0  0  0  0  0  0  0  0  0  0
    4.6629   -1.5799    0.2980 C   0  0  0  0  0  0  0  0  0  0  0  0
    5.1999   -1.3719   -1.1132 C   0  0  0  0  0  0  0  0  0  0  0  0
   -1.6202    1.2818   -0.1476 C   0  0  0  0  0  0  0  0  0  0  0  0
   -1.7697    2.7104   -0.2489 C   0  0  0  0  0  0  0  0  0  0  0  0
   -0.8899    3.5882   -0.7259 C   0  0  0  0  0  0  0  0  0  0  0  0
   -3.0864    0.3527    0.0151 S   0  0  0  0  0  0  0  0  0  0  0  0
   -4.5802   -3.5906    0.3650 H   0  0  0  0  0  0  0  0  0  0  0  0
   -4.8443   -1.7782    0.2568 H   0  0  0  0  0  0  0  0  0  0  0  0
   -2.1631   -3.2593    0.2080 H   0  0  0  0  0  0  0  0  0  0  0  0
   -0.1337   -1.6934    0.0007 H   0  0  0  0  0  0  0  0  0  0  0  0
    0.9617    1.8985    0.3732 H   0  0  0  0  0  0  0  0  0  0  0  0
    1.1533    1.2105   -1.2406 H   0  0  0  0  0  0  0  0  0  0  0  0
    1.9755   -0.8944   -0.3045 H   0  0  0  0  0  0  0  0  0  0  0  0
    1.6502   -0.3339    1.3422 H   0  0  0  0  0  0  0  0  0  0  0  0
    3.2638    1.5489    0.9771 H   0  0  0  0  0  0  0  0  0  0  0  0
    3.6398    0.9014   -0.6147 H   0  0  0  0  0  0  0  0  0  0  0  0
    4.0668   -0.5089    2.0571 H   0  0  0  0  0  0  0  0  0  0  0  0
    5.3174    0.2939    1.1089 H   0  0  0  0  0  0  0  0  0  0  0  0
    3.7547   -2.1836    0.2572 H   0  0  0  0  0  0  0  0  0  0  0  0
    5.3997   -2.1437    0.8756 H   0  0  0  0  0  0  0  0  0  0  0  0
    4.4508   -0.9159   -1.7552 H   0  0  0  0  0  0  0  0  0  0  0  0
    5.4844   -2.3255   -1.5526 H   0  0  0  0  0  0  0  0  0  0  0  0
    6.0768   -0.7280   -1.0951 H   0  0  0  0  0  0  0  0  0  0  0  0
   -2.7352    3.0718    0.0855 H   0  0  0  0  0  0  0  0  0  0  0  0
    0.0660    3.3063   -1.1263 H   0  0  0  0  0  0  0  0  0  0  0  0
   -1.1243    4.6386   -0.7496 H   0  0  0  0  0  0  0  0  0  0  0  0
  1  2  2  0  0  0  0
  2  3  1  0  0  0  0
  3  4  2  0  0  0  0
  4  5  4  0  0  0  0
  5  6  1  0  0  0  0
  6  7  1  0  0  0  0
  7  8  1  0  0  0  0
  8  9  1  0  0  0  0
  9 10  1  0  0  0  0
 10 11  1  0  0  0  0
  5 12  4  0  0  0  0
 12 13  1  0  0  0  0
 13 14  2  0  0  0  0
  3 15  1  0  0  0  0
 12 15  1  0  0  0  0
  1 16  1  0  0  0  0
  1 17  1  0  0  0  0
  2 18  1  0  0  0  0
  4 19  1  0  0  0  0
  6 20  1  0  0  0  0
  6 21  1  0  0  0  0
  7 22  1  0  0  0  0
  7 23  1  0  0  0  0
  8 24  1  0  0  0  0
  8 25  1  0  0  0  0
  9 26  1  0  0  0  0
  9 27  1  0  0  0  0
 10 28  1  0  0  0  0
 10 29  1  0  0  0  0
 11 30  1  0  0  0  0
 11 31  1  0  0  0  0
 11 32  1  0  0  0  0
 13 33  1  0  0  0  0
 14 34  1  0  0  0  0
 14 35  1  0  0  0  0
M  END
