
  xtb     02032211363D
 xtb: 6.4.1 (23d549d)
 20 20  0     0  0            999 V2000
    3.1886   -1.6976    0.0276 C   0  0  0  0  0  0  0  0  0  0  0  0
    2.7875   -0.4329    0.0017 C   0  0  0  0  0  0  0  0  0  0  0  0
    1.4086    0.0341   -0.0179 C   0  0  0  0  0  0  0  0  0  0  0  0
    0.2880   -0.8105   -0.0939 C   0  0  0  0  0  0  0  0  0  0  0  0
   -0.9731   -0.2503   -0.0915 C   0  0  0  0  0  0  0  0  0  0  0  0
   -2.1926   -1.0421   -0.2127 C   0  0  0  0  0  0  0  0  0  0  0  0
   -2.3324   -2.2789    0.2458 C   0  0  0  0  0  0  0  0  0  0  0  0
   -1.0156    1.1681    0.0059 C   0  0  0  0  0  0  0  0  0  0  0  0
   -2.1871    1.8644    0.0162 N   0  0  0  0  0  0  0  0  0  0  0  0
    0.0927    1.9026    0.0362 N   0  0  0  0  0  0  0  0  0  0  0  0
    1.2641    1.3548    0.0183 N   0  0  0  0  0  0  0  0  0  0  0  0
    4.2345   -1.9515    0.0451 H   0  0  0  0  0  0  0  0  0  0  0  0
    2.5038   -2.5293    0.0342 H   0  0  0  0  0  0  0  0  0  0  0  0
    3.5087    0.3727    0.0032 H   0  0  0  0  0  0  0  0  0  0  0  0
    0.4064   -1.8782   -0.1927 H   0  0  0  0  0  0  0  0  0  0  0  0
   -3.0186   -0.5561   -0.7170 H   0  0  0  0  0  0  0  0  0  0  0  0
   -1.5408   -2.7852    0.7727 H   0  0  0  0  0  0  0  0  0  0  0  0
   -3.2510   -2.8266    0.1244 H   0  0  0  0  0  0  0  0  0  0  0  0
   -3.0232    1.4101    0.3389 H   0  0  0  0  0  0  0  0  0  0  0  0
   -2.0931    2.8464    0.2176 H   0  0  0  0  0  0  0  0  0  0  0  0
  1  2  2  0  0  0  0
  2  3  1  0  0  0  0
  3  4  4  0  0  0  0
  4  5  4  0  0  0  0
  5  6  1  0  0  0  0
  6  7  2  0  0  0  0
  5  8  4  0  0  0  0
  8  9  4  0  0  0  0
  8 10  4  0  0  0  0
  3 11  4  0  0  0  0
 10 11  4  0  0  0  0
  1 12  1  0  0  0  0
  1 13  1  0  0  0  0
  2 14  1  0  0  0  0
  4 15  1  0  0  0  0
  6 16  1  0  0  0  0
  7 17  1  0  0  0  0
  7 18  1  0  0  0  0
  9 19  1  0  0  0  0
  9 20  1  0  0  0  0
M  END
