
 OpenBabel02032210463D

 45 48  0  0  0  0  0  0  0  0999 V2000
    0.8638    0.0598   -0.2825 C   0  0  0  0  0  0  0  0  0  0  0  0
    2.4137    0.0786   -0.1912 C   0  0  0  0  0  0  0  0  0  0  0  0
    2.8615   -1.2003    0.5150 C   0  0  0  0  0  0  0  0  0  0  0  0
    3.5742   -1.1714    1.7262 C   0  0  0  0  0  0  0  0  0  0  0  0
    4.0625    0.0807    2.2875 N   0  0  0  0  0  0  0  0  0  0  0  0
    3.7106    1.3324    1.6329 C   0  0  0  0  0  0  0  0  0  0  0  0
    2.8533    1.3608    0.5158 C   0  0  0  0  0  0  0  0  0  0  0  0
    2.4423    2.6140   -0.0225 C   0  0  0  0  0  0  0  0  0  0  0  0
    2.8803    3.8225    0.5035 C   0  0  0  0  0  0  0  0  0  0  0  0
    3.7890    3.8028    1.5407 C   0  0  0  0  0  0  0  0  0  0  0  0
    4.2196    2.5792    2.0685 C   0  0  0  0  0  0  0  0  0  0  0  0
    4.8729    0.0782    3.4985 C   0  0  0  0  0  0  0  0  0  0  0  0
    5.9735   -0.7856    3.6469 C   0  0  0  0  0  0  0  0  0  0  0  0
    6.6846   -0.8698    4.8537 C   0  0  0  0  0  0  0  0  0  0  0  0
    6.3943   -0.0087    5.9150 C   0  0  0  0  0  0  0  0  0  0  0  0
    7.1275   -0.1589    7.1773 C   0  0  0  0  0  0  0  0  0  0  0  0
    7.5566    0.8347    7.9587 C   0  0  0  0  0  0  0  0  0  0  0  0
    7.3679    2.1276    7.6288 F   0  0  0  0  0  0  0  0  0  0  0  0
    8.2078    0.5284    9.1062 F   0  0  0  0  0  0  0  0  0  0  0  0
    5.3537    0.9091    5.7592 C   0  0  0  0  0  0  0  0  0  0  0  0
    4.5785    0.9185    4.5885 C   0  0  0  0  0  0  0  0  0  0  0  0
    3.7765   -2.4178    2.3694 C   0  0  0  0  0  0  0  0  0  0  0  0
    3.4389   -3.6419    1.7813 C   0  0  0  0  0  0  0  0  0  0  0  0
    2.8191   -3.6614    0.5504 C   0  0  0  0  0  0  0  0  0  0  0  0
    2.5091   -2.4518   -0.0605 C   0  0  0  0  0  0  0  0  0  0  0  0
    3.0348    0.0941   -1.6127 C   0  0  0  0  0  0  0  0  0  0  0  0
    0.4133    0.0590    0.7184 H   0  0  0  0  0  0  0  0  0  0  0  0
    0.4843   -0.8217   -0.8107 H   0  0  0  0  0  0  0  0  0  0  0  0
    0.4608    0.9240   -0.8202 H   0  0  0  0  0  0  0  0  0  0  0  0
    1.7754    2.6560   -0.8802 H   0  0  0  0  0  0  0  0  0  0  0  0
    2.5358    4.7629    0.0829 H   0  0  0  0  0  0  0  0  0  0  0  0
    4.1728    4.7338    1.9482 H   0  0  0  0  0  0  0  0  0  0  0  0
    4.9791    2.6382    2.8419 H   0  0  0  0  0  0  0  0  0  0  0  0
    6.2664   -1.4417    2.8297 H   0  0  0  0  0  0  0  0  0  0  0  0
    7.4685   -1.6188    4.9475 H   0  0  0  0  0  0  0  0  0  0  0  0
    7.3283   -1.1815    7.4903 H   0  0  0  0  0  0  0  0  0  0  0  0
    5.1065    1.6109    6.5533 H   0  0  0  0  0  0  0  0  0  0  0  0
    3.7324    1.6006    4.5414 H   0  0  0  0  0  0  0  0  0  0  0  0
    4.2111   -2.4773    3.3616 H   0  0  0  0  0  0  0  0  0  0  0  0
    3.6656   -4.5726    2.2945 H   0  0  0  0  0  0  0  0  0  0  0  0
    2.5470   -4.6023    0.0797 H   0  0  0  0  0  0  0  0  0  0  0  0
    1.9741   -2.4977   -1.0062 H   0  0  0  0  0  0  0  0  0  0  0  0
    2.7583   -0.7852   -2.2037 H   0  0  0  0  0  0  0  0  0  0  0  0
    4.1312    0.1177   -1.5594 H   0  0  0  0  0  0  0  0  0  0  0  0
    2.7177    0.9660   -2.1956 H   0  0  0  0  0  0  0  0  0  0  0  0
  1  2  1  0  0  0  0
  1 27  1  0  0  0  0
  1 28  1  0  0  0  0
  1 29  1  0  0  0  0
  2  3  1  0  0  0  0
  2  7  1  0  0  0  0
  2 26  1  0  0  0  0
  3  4  1  0  0  0  0
  3 25  2  0  0  0  0
  4  5  1  0  0  0  0
  4 22  2  0  0  0  0
  5  6  1  0  0  0  0
  5 12  1  0  0  0  0
  6  7  1  0  0  0  0
  6 11  2  0  0  0  0
  7  8  2  0  0  0  0
  8  9  1  0  0  0  0
  8 30  1  0  0  0  0
  9 10  2  0  0  0  0
  9 31  1  0  0  0  0
 10 11  1  0  0  0  0
 10 32  1  0  0  0  0
 11 33  1  0  0  0  0
 12 13  1  0  0  0  0
 12 21  2  0  0  0  0
 13 14  2  0  0  0  0
 13 34  1  0  0  0  0
 14 15  1  0  0  0  0
 14 35  1  0  0  0  0
 15 16  1  0  0  0  0
 15 20  2  0  0  0  0
 16 17  2  0  0  0  0
 16 36  1  0  0  0  0
 17 18  1  0  0  0  0
 17 19  1  0  0  0  0
 20 21  1  0  0  0  0
 20 37  1  0  0  0  0
 21 38  1  0  0  0  0
 22 23  1  0  0  0  0
 22 39  1  0  0  0  0
 23 24  2  0  0  0  0
 23 40  1  0  0  0  0
 24 25  1  0  0  0  0
 24 41  1  0  0  0  0
 25 42  1  0  0  0  0
 26 43  1  0  0  0  0
 26 44  1  0  0  0  0
 26 45  1  0  0  0  0
M  END
