21

C          1.02030        0.01410       -0.09980
C          2.52000       -0.01200       -0.10000
N          3.20110        1.16450       -0.09720
C          4.56000        1.21570       -0.09600
C          5.23500        2.55400       -0.09440
C          5.28620        0.00770       -0.09680
N          6.70370       -0.01680       -0.09370
N          4.60470       -1.16850       -0.10060
C          3.24600       -1.21890       -0.10280
C          2.56640       -2.55600       -0.10830
H          0.64870        1.06090       -0.09680
H          0.63310       -0.49870        0.80530
H          0.63230       -0.49420       -1.00710
H          4.48210        3.37080       -0.09500
H          5.86710        2.65920       -1.00120
H          5.86570        2.65850        0.81340
H          7.26260        0.84760       -0.08990
H          7.20080       -0.91920       -0.09360
H          3.31700       -3.37490       -0.11040
H          1.93520       -2.65570       -1.01600
H          1.93220       -2.66250        0.79650
