
 OpenBabel02012214093D

 21 21  0  0  0  0  0  0  0  0999 V2000
    1.0203    0.0141   -0.0998 C   0  0  0  0  0  0  0  0  0  0  0  0
    2.5200   -0.0120   -0.1000 C   0  0  0  0  0  0  0  0  0  0  0  0
    3.2011    1.1645   -0.0972 N   0  0  0  0  0  0  0  0  0  0  0  0
    4.5600    1.2157   -0.0960 C   0  0  0  0  0  0  0  0  0  0  0  0
    5.2350    2.5540   -0.0944 C   0  0  0  0  0  0  0  0  0  0  0  0
    5.2862    0.0077   -0.0968 C   0  0  0  0  0  0  0  0  0  0  0  0
    6.7037   -0.0168   -0.0937 N   0  0  0  0  0  0  0  0  0  0  0  0
    4.6047   -1.1685   -0.1006 N   0  0  0  0  0  0  0  0  0  0  0  0
    3.2460   -1.2189   -0.1028 C   0  0  0  0  0  0  0  0  0  0  0  0
    2.5664   -2.5560   -0.1083 C   0  0  0  0  0  0  0  0  0  0  0  0
    0.6487    1.0609   -0.0968 H   0  0  0  0  0  0  0  0  0  0  0  0
    0.6331   -0.4987    0.8053 H   0  0  0  0  0  0  0  0  0  0  0  0
    0.6323   -0.4942   -1.0071 H   0  0  0  0  0  0  0  0  0  0  0  0
    4.4821    3.3708   -0.0950 H   0  0  0  0  0  0  0  0  0  0  0  0
    5.8671    2.6592   -1.0012 H   0  0  0  0  0  0  0  0  0  0  0  0
    5.8657    2.6585    0.8134 H   0  0  0  0  0  0  0  0  0  0  0  0
    7.2626    0.8476   -0.0899 H   0  0  0  0  0  0  0  0  0  0  0  0
    7.2008   -0.9192   -0.0936 H   0  0  0  0  0  0  0  0  0  0  0  0
    3.3170   -3.3749   -0.1104 H   0  0  0  0  0  0  0  0  0  0  0  0
    1.9352   -2.6557   -1.0160 H   0  0  0  0  0  0  0  0  0  0  0  0
    1.9322   -2.6625    0.7965 H   0  0  0  0  0  0  0  0  0  0  0  0
  1  2  1  0  0  0  0
  1 11  1  0  0  0  0
  1 12  1  0  0  0  0
  1 13  1  0  0  0  0
  2  3  1  0  0  0  0
  2  9  2  0  0  0  0
  3  4  2  0  0  0  0
  4  5  1  0  0  0  0
  4  6  1  0  0  0  0
  5 14  1  0  0  0  0
  5 15  1  0  0  0  0
  5 16  1  0  0  0  0
  6  7  1  0  0  0  0
  6  8  2  0  0  0  0
  7 17  1  0  0  0  0
  7 18  1  0  0  0  0
  8  9  1  0  0  0  0
  9 10  1  0  0  0  0
 10 19  1  0  0  0  0
 10 20  1  0  0  0  0
 10 21  1  0  0  0  0
M  END
