
  xtb     02032211173D
 xtb: 6.4.1 (23d549d)
 48 48  0     0  0            999 V2000
    1.2023   -0.7874    0.5265 c   0  0  0  0  0  0  0  0  0  0  0  0
    2.2502   -0.0616    0.1502 c   0  0  0  0  0  0  0  0  0  0  0  0
    2.9689    0.8731    0.9857 c   0  0  0  0  0  0  0  0  0  0  0  0
    2.7034    1.1982    2.2921 c   0  0  0  0  0  0  0  0  0  0  0  0
    3.6002    2.1219    2.7431 n   0  0  0  0  0  0  0  0  0  0  0  0
    3.7466    2.9078    4.3254 si  0  0  0  0  0  0  0  0  0  0  0  0
    5.5282    2.4808    4.9314 c   0  0  0  0  0  0  0  0  0  0  0  0
    5.7246    2.7364    6.4254 c   0  0  0  0  0  0  0  0  0  0  0  0
    5.9445    1.0504    4.5862 c   0  0  0  0  0  0  0  0  0  0  0  0
    3.6566    4.8007    3.9604 c   0  0  0  0  0  0  0  0  0  0  0  0
    2.6601    5.1433    2.8522 c   0  0  0  0  0  0  0  0  0  0  0  0
    3.3557    5.6311    5.2078 c   0  0  0  0  0  0  0  0  0  0  0  0
    2.3794    2.3273    5.5464 c   0  0  0  0  0  0  0  0  0  0  0  0
    0.9639    2.6844    5.0890 c   0  0  0  0  0  0  0  0  0  0  0  0
    2.4582    0.8388    5.8899 c   0  0  0  0  0  0  0  0  0  0  0  0
    4.4548    2.3923    1.7100 c   0  0  0  0  0  0  0  0  0  0  0  0
    4.1149    1.6550    0.6047 c   0  0  0  0  0  0  0  0  0  0  0  0
    4.7650    1.6541   -0.6861 c   0  0  0  0  0  0  0  0  0  0  0  0
    5.8306    2.3777   -1.0134 c   0  0  0  0  0  0  0  0  0  0  0  0
    0.7131   -1.4645   -0.1525 h   0  0  0  0  0  0  0  0  0  0  0  0
    0.7931   -0.7325    1.5208 h   0  0  0  0  0  0  0  0  0  0  0  0
    2.6159   -0.1601   -0.8635 h   0  0  0  0  0  0  0  0  0  0  0  0
    1.9301    0.8294    2.9321 h   0  0  0  0  0  0  0  0  0  0  0  0
    6.2183    3.1481    4.4020 h   0  0  0  0  0  0  0  0  0  0  0  0
    5.0809    2.0925    7.0188 h   0  0  0  0  0  0  0  0  0  0  0  0
    5.4978    3.7690    6.6773 h   0  0  0  0  0  0  0  0  0  0  0  0
    6.7562    2.5371    6.7117 h   0  0  0  0  0  0  0  0  0  0  0  0
    5.3198    0.3255    5.1008 h   0  0  0  0  0  0  0  0  0  0  0  0
    6.9780    0.8763    4.8823 h   0  0  0  0  0  0  0  0  0  0  0  0
    5.8619    0.8707    3.5174 h   0  0  0  0  0  0  0  0  0  0  0  0
    4.6460    5.1104    3.6045 h   0  0  0  0  0  0  0  0  0  0  0  0
    1.6469    4.8763    3.1401 h   0  0  0  0  0  0  0  0  0  0  0  0
    2.9026    4.6116    1.9357 h   0  0  0  0  0  0  0  0  0  0  0  0
    2.6816    6.2119    2.6426 h   0  0  0  0  0  0  0  0  0  0  0  0
    2.3694    5.3996    5.6010 h   0  0  0  0  0  0  0  0  0  0  0  0
    3.3824    6.6938    4.9714 h   0  0  0  0  0  0  0  0  0  0  0  0
    4.0862    5.4405    5.9896 h   0  0  0  0  0  0  0  0  0  0  0  0
    2.5580    2.8757    6.4783 h   0  0  0  0  0  0  0  0  0  0  0  0
    0.7250    2.2231    4.1350 h   0  0  0  0  0  0  0  0  0  0  0  0
    0.8485    3.7592    4.9814 h   0  0  0  0  0  0  0  0  0  0  0  0
    0.2353    2.3410    5.8229 h   0  0  0  0  0  0  0  0  0  0  0  0
    2.3342    0.2189    5.0065 h   0  0  0  0  0  0  0  0  0  0  0  0
    1.6745    0.5764    6.6001 h   0  0  0  0  0  0  0  0  0  0  0  0
    3.4148    0.5931    6.3421 h   0  0  0  0  0  0  0  0  0  0  0  0
    5.2495    3.0983    1.8425 h   0  0  0  0  0  0  0  0  0  0  0  0
    4.3281    1.0008   -1.4300 h   0  0  0  0  0  0  0  0  0  0  0  0
    6.3074    3.0437   -0.3149 h   0  0  0  0  0  0  0  0  0  0  0  0
    6.2645    2.3279   -1.9972 h   0  0  0  0  0  0  0  0  0  0  0  0
  1  2  2  0  0  0  0
  2  3  1  0  0  0  0
  3  4  2  0  0  0  0
  4  5  4  0  0  0  0
  5  6  1  0  0  0  0
  6  7  1  0  0  0  0
  7  8  1  0  0  0  0
  7  9  1  0  0  0  0
  6 10  1  0  0  0  0
 10 11  1  0  0  0  0
 10 12  1  0  0  0  0
  6 13  1  0  0  0  0
 13 14  1  0  0  0  0
 13 15  1  0  0  0  0
  5 16  4  0  0  0  0
  3 17  1  0  0  0  0
 16 17  2  0  0  0  0
 17 18  1  0  0  0  0
 18 19  2  0  0  0  0
  1 20  1  0  0  0  0
  1 21  1  0  0  0  0
  2 22  1  0  0  0  0
  4 23  1  0  0  0  0
  7 24  1  0  0  0  0
  8 25  1  0  0  0  0
  8 26  1  0  0  0  0
  8 27  1  0  0  0  0
  9 28  1  0  0  0  0
  9 29  1  0  0  0  0
  9 30  1  0  0  0  0
 10 31  1  0  0  0  0
 11 32  1  0  0  0  0
 11 33  1  0  0  0  0
 11 34  1  0  0  0  0
 12 35  1  0  0  0  0
 12 36  1  0  0  0  0
 12 37  1  0  0  0  0
 13 38  1  0  0  0  0
 14 39  1  0  0  0  0
 14 40  1  0  0  0  0
 14 41  1  0  0  0  0
 15 42  1  0  0  0  0
 15 43  1  0  0  0  0
 15 44  1  0  0  0  0
 16 45  1  0  0  0  0
 18 46  1  0  0  0  0
 19 47  1  0  0  0  0
 19 48  1  0  0  0  0
M  END
