18

C          2.90610        0.00660        0.00430
C          1.40590       -0.00830        0.00240
C          0.69890       -1.22090        0.00120
C         -0.69940       -1.22180       -0.00020
C         -1.40780       -0.00990       -0.00060
C         -2.90790        0.00300       -0.00200
C         -0.70080        1.20150        0.00040
C          0.69740        1.20230        0.00200
H          3.32370       -1.02280        0.00320
H          3.27290        0.53330        0.91030
H          3.27540        0.53630       -0.89890
H          1.22750       -2.16610        0.00150
H         -1.22670       -2.16760       -0.00100
H         -3.32430       -1.02680       -0.00200
H         -3.27600        0.53070       -0.90700
H         -3.27740        0.53100        0.90230
H         -1.23320        2.14480        0.00000
H          1.22880        2.14630        0.00290
