
  xtb     02032211283D
 xtb: 6.4.1 (23d549d)
 25 25  0     0  0            999 V2000
    1.3914   -0.0738   -0.6766 c   0  0  0  0  0  0  0  0  0  0  0  0
    2.5029   -0.2036    0.0401 c   0  0  0  0  0  0  0  0  0  0  0  0
    3.1829   -1.4631    0.1948 c   0  0  0  0  0  0  0  0  0  0  0  0
    2.8486   -2.6118   -0.3143 n   0  0  0  0  0  0  0  0  0  0  0  0
    3.7917   -3.4969    0.1121 c   0  0  0  0  0  0  0  0  0  0  0  0
    3.7195   -4.9113   -0.2838 c   0  0  0  0  0  0  0  0  0  0  0  0
    2.8651   -5.3831   -0.9860 o   0  0  0  0  0  0  0  0  0  0  0  0
    4.7287   -5.6270    0.2482 o   0  0  0  0  0  0  0  0  0  0  0  0
    4.7645   -7.0164   -0.0838 c   0  0  0  0  0  0  0  0  0  0  0  0
    5.4372   -7.2519   -1.4285 c   0  0  0  0  0  0  0  0  0  0  0  0
    4.7091   -2.8156    0.9034 c   0  0  0  0  0  0  0  0  0  0  0  0
    5.8896   -3.2394    1.6041 c   0  0  0  0  0  0  0  0  0  0  0  0
    6.6492   -2.4152    2.3225 c   0  0  0  0  0  0  0  0  0  0  0  0
    4.3085   -1.5261    0.9457 o   0  0  0  0  0  0  0  0  0  0  0  0
    0.8953    0.8748   -0.7819 h   0  0  0  0  0  0  0  0  0  0  0  0
    0.9605   -0.9267   -1.1710 h   0  0  0  0  0  0  0  0  0  0  0  0
    2.9640    0.6295    0.5517 h   0  0  0  0  0  0  0  0  0  0  0  0
    3.7398   -7.4015   -0.1019 h   0  0  0  0  0  0  0  0  0  0  0  0
    5.3256   -7.4863    0.7269 h   0  0  0  0  0  0  0  0  0  0  0  0
    4.8605   -6.7765   -2.2179 h   0  0  0  0  0  0  0  0  0  0  0  0
    5.4914   -8.3187   -1.6260 h   0  0  0  0  0  0  0  0  0  0  0  0
    6.4430   -6.8381   -1.4263 h   0  0  0  0  0  0  0  0  0  0  0  0
    6.1187   -4.2888    1.5060 h   0  0  0  0  0  0  0  0  0  0  0  0
    6.4111   -1.3689    2.4167 h   0  0  0  0  0  0  0  0  0  0  0  0
    7.5277   -2.7645    2.8352 h   0  0  0  0  0  0  0  0  0  0  0  0
  1  2  2  0  0  0  0
  2  3  1  0  0  0  0
  3  4  2  0  0  0  0
  4  5  4  0  0  0  0
  5  6  1  0  0  0  0
  6  7  2  0  0  0  0
  6  8  1  0  0  0  0
  8  9  1  0  0  0  0
  9 10  1  0  0  0  0
  5 11  4  0  0  0  0
 11 12  1  0  0  0  0
 12 13  2  0  0  0  0
  3 14  1  0  0  0  0
 11 14  1  0  0  0  0
  1 15  1  0  0  0  0
  1 16  1  0  0  0  0
  2 17  1  0  0  0  0
  9 18  1  0  0  0  0
  9 19  1  0  0  0  0
 10 20  1  0  0  0  0
 10 21  1  0  0  0  0
 10 22  1  0  0  0  0
 12 23  1  0  0  0  0
 13 24  1  0  0  0  0
 13 25  1  0  0  0  0
M  END
