
 OpenBabel02032211033D

 31 32  0  0  0  0  0  0  0  0999 V2000
    2.4470   -1.3853   -0.6904 C   0  0  0  0  0  0  0  0  0  0  0  0
    2.3983   -0.1827   -0.1020 C   0  0  0  0  0  0  0  0  0  0  0  0
    3.1138    1.0176   -0.5626 C   0  0  0  0  0  0  0  0  0  0  0  0
    4.3088    0.9547   -1.2948 C   0  0  0  0  0  0  0  0  0  0  0  0
    4.9696    2.1187   -1.7182 C   0  0  0  0  0  0  0  0  0  0  0  0
    6.2542    1.9781   -2.4203 C   0  0  0  0  0  0  0  0  0  0  0  0
    6.7311    2.8337   -3.3340 C   0  0  0  0  0  0  0  0  0  0  0  0
    4.4148    3.3619   -1.3971 C   0  0  0  0  0  0  0  0  0  0  0  0
    3.2221    3.4433   -0.6730 C   0  0  0  0  0  0  0  0  0  0  0  0
    2.7788    4.7160   -0.3874 O   0  0  0  0  0  0  0  0  0  0  0  0
    1.4304    4.9736   -0.2836 C   0  0  0  0  0  0  0  0  0  0  0  0
    1.0715    5.9928    0.6019 C   0  0  0  0  0  0  0  0  0  0  0  0
   -0.2701    6.3416    0.7671 C   0  0  0  0  0  0  0  0  0  0  0  0
   -1.2572    5.6717    0.0456 C   0  0  0  0  0  0  0  0  0  0  0  0
   -0.9009    4.6743   -0.8614 C   0  0  0  0  0  0  0  0  0  0  0  0
    0.4430    4.3423   -1.0453 C   0  0  0  0  0  0  0  0  0  0  0  0
    2.6036    2.2753   -0.2178 C   0  0  0  0  0  0  0  0  0  0  0  0
    1.8698   -2.2131   -0.2895 H   0  0  0  0  0  0  0  0  0  0  0  0
    3.0334   -1.5839   -1.5808 H   0  0  0  0  0  0  0  0  0  0  0  0
    1.7604   -0.0548    0.7703 H   0  0  0  0  0  0  0  0  0  0  0  0
    4.7428   -0.0134   -1.5338 H   0  0  0  0  0  0  0  0  0  0  0  0
    6.8386    1.0947   -2.1714 H   0  0  0  0  0  0  0  0  0  0  0  0
    6.1910    3.7192   -3.6467 H   0  0  0  0  0  0  0  0  0  0  0  0
    7.6919    2.6471   -3.8080 H   0  0  0  0  0  0  0  0  0  0  0  0
    4.9126    4.2831   -1.6889 H   0  0  0  0  0  0  0  0  0  0  0  0
    1.8392    6.5172    1.1650 H   0  0  0  0  0  0  0  0  0  0  0  0
   -0.5442    7.1349    1.4575 H   0  0  0  0  0  0  0  0  0  0  0  0
   -2.3032    5.9343    0.1814 H   0  0  0  0  0  0  0  0  0  0  0  0
   -1.6689    4.1576   -1.4313 H   0  0  0  0  0  0  0  0  0  0  0  0
    0.7018    3.5854   -1.7801 H   0  0  0  0  0  0  0  0  0  0  0  0
    1.7105    2.3415    0.3983 H   0  0  0  0  0  0  0  0  0  0  0  0
  1  2  2  0  0  0  0
  1 18  1  0  0  0  0
  1 19  1  0  0  0  0
  2  3  1  0  0  0  0
  2 20  1  0  0  0  0
  3  4  1  0  0  0  0
  3 17  2  0  0  0  0
  4  5  2  0  0  0  0
  4 21  1  0  0  0  0
  5  6  1  0  0  0  0
  5  8  1  0  0  0  0
  6  7  2  0  0  0  0
  6 22  1  0  0  0  0
  7 23  1  0  0  0  0
  7 24  1  0  0  0  0
  8  9  2  0  0  0  0
  8 25  1  0  0  0  0
  9 10  1  0  0  0  0
  9 17  1  0  0  0  0
 10 11  1  0  0  0  0
 11 12  1  0  0  0  0
 11 16  2  0  0  0  0
 12 13  2  0  0  0  0
 12 26  1  0  0  0  0
 13 14  1  0  0  0  0
 13 27  1  0  0  0  0
 14 15  2  0  0  0  0
 14 28  1  0  0  0  0
 15 16  1  0  0  0  0
 15 29  1  0  0  0  0
 16 30  1  0  0  0  0
 17 31  1  0  0  0  0
M  END
