 xtb: 6.5.0 (unknown)
          08122213073D

 23  0  0     0  0            999 V2000
    1.0079    3.7230   -0.9624 C   0  0  0  0  0  0  0  0  0  0  0  0
    1.0673    2.5008   -0.4499 C   0  0  0  0  0  0  0  0  0  0  0  0
   -0.0801    1.6180   -0.2511 C   0  0  0  0  0  0  0  0  0  0  0  0
   -1.3528    2.1283   -0.0111 C   0  0  0  0  0  0  0  0  0  0  0  0
   -2.4314    1.2958    0.2162 C   0  0  0  0  0  0  0  0  0  0  0  0
   -2.2865   -0.0846    0.2033 C   0  0  0  0  0  0  0  0  0  0  0  0
   -3.4316   -1.0198    0.4267 C   0  0  0  0  0  0  0  0  0  0  0  0
   -1.0123   -0.5846   -0.0370 C   0  0  0  0  0  0  0  0  0  0  0  0
   -0.8611   -1.9261   -0.0994 F   0  0  0  0  0  0  0  0  0  0  0  0
    0.0977    0.2238   -0.2539 C   0  0  0  0  0  0  0  0  0  0  0  0
    1.4095   -0.3697   -0.5332 C   0  0  0  0  0  0  0  0  0  0  0  0
    1.9509   -1.3521    0.1664 C   0  0  0  0  0  0  0  0  0  0  0  0
    1.4610   -1.9117    1.2610 F   0  0  0  0  0  0  0  0  0  0  0  0
    3.1345   -1.8913   -0.1142 F   0  0  0  0  0  0  0  0  0  0  0  0
    1.8910    4.3274   -1.0775 H   0  0  0  0  0  0  0  0  0  0  0  0
    0.0846    4.1606   -1.3023 H   0  0  0  0  0  0  0  0  0  0  0  0
    2.0246    2.0947   -0.1507 H   0  0  0  0  0  0  0  0  0  0  0  0
   -1.4920    3.1974    0.0218 H   0  0  0  0  0  0  0  0  0  0  0  0
   -3.4056    1.7202    0.4080 H   0  0  0  0  0  0  0  0  0  0  0  0
   -4.3283   -0.4726    0.7032 H   0  0  0  0  0  0  0  0  0  0  0  0
   -3.1885   -1.7319    1.2137 H   0  0  0  0  0  0  0  0  0  0  0  0
   -3.6314   -1.5911   -0.4795 H   0  0  0  0  0  0  0  0  0  0  0  0
    1.9712    0.0087   -1.3733 H   0  0  0  0  0  0  0  0  0  0  0  0
M  END
