
 OpenBabel02032210523D

 23 24  0  0  0  0  0  0  0  0999 V2000
    1.1137   -0.0765   -0.3310 C   0  0  0  0  0  0  0  0  0  0  0  0
    2.4076   -0.1017    0.0175 C   0  0  0  0  0  0  0  0  0  0  0  0
    3.0761   -1.2703    0.6130 C   0  0  0  0  0  0  0  0  0  0  0  0
    2.6846   -2.5812    0.2951 C   0  0  0  0  0  0  0  0  0  0  0  0
    3.3037   -3.6967    0.8655 C   0  0  0  0  0  0  0  0  0  0  0  0
    4.3415   -3.4395    1.7513 C   0  0  0  0  0  0  0  0  0  0  0  0
    5.0577   -4.3811    2.4107 O   0  0  0  0  0  0  0  0  0  0  0  0
    6.0022   -3.7534    3.1896 C   0  0  0  0  0  0  0  0  0  0  0  0
    6.9302   -4.4346    4.0207 C   0  0  0  0  0  0  0  0  0  0  0  0
    6.9610   -5.7662    4.1293 C   0  0  0  0  0  0  0  0  0  0  0  0
    6.1067   -6.5615    3.4529 F   0  0  0  0  0  0  0  0  0  0  0  0
    7.8777   -6.3299    4.9456 F   0  0  0  0  0  0  0  0  0  0  0  0
    5.8573   -2.3817    2.9944 C   0  0  0  0  0  0  0  0  0  0  0  0
    4.7915   -2.1726    2.0791 C   0  0  0  0  0  0  0  0  0  0  0  0
    4.1565   -1.0594    1.4945 C   0  0  0  0  0  0  0  0  0  0  0  0
    0.6731    0.8184   -0.7604 H   0  0  0  0  0  0  0  0  0  0  0  0
    0.4538   -0.9261   -0.1906 H   0  0  0  0  0  0  0  0  0  0  0  0
    3.0135    0.7904   -0.1195 H   0  0  0  0  0  0  0  0  0  0  0  0
    1.8804   -2.7562   -0.4167 H   0  0  0  0  0  0  0  0  0  0  0  0
    2.9960   -4.7092    0.6343 H   0  0  0  0  0  0  0  0  0  0  0  0
    7.6423   -3.8522    4.5928 H   0  0  0  0  0  0  0  0  0  0  0  0
    6.4562   -1.6160    3.4681 H   0  0  0  0  0  0  0  0  0  0  0  0
    4.4895   -0.0549    1.7396 H   0  0  0  0  0  0  0  0  0  0  0  0
  1  2  2  0  0  0  0
  1 16  1  0  0  0  0
  1 17  1  0  0  0  0
  2  3  1  0  0  0  0
  2 18  1  0  0  0  0
  3  4  1  0  0  0  0
  3 15  2  0  0  0  0
  4  5  2  0  0  0  0
  4 19  1  0  0  0  0
  5  6  1  0  0  0  0
  5 20  1  0  0  0  0
  6  7  1  0  0  0  0
  6 14  2  0  0  0  0
  7  8  1  0  0  0  0
  8  9  1  0  0  0  0
  8 13  2  0  0  0  0
  9 10  2  0  0  0  0
  9 21  1  0  0  0  0
 10 11  1  0  0  0  0
 10 12  1  0  0  0  0
 13 14  1  0  0  0  0
 13 22  1  0  0  0  0
 14 15  1  0  0  0  0
 15 23  1  0  0  0  0
M  END
