 xtb: 6.5.0 (unknown)
          08122213063D

 23  0  0     0  0            999 V2000
   -1.5452   -3.0655   -0.1191 c   0  0  0  0  0  0  0  0  0  0  0  0
   -1.1953   -1.8705   -0.5738 c   0  0  0  0  0  0  0  0  0  0  0  0
    0.0699   -1.2018   -0.2829 c   0  0  0  0  0  0  0  0  0  0  0  0
    1.2388   -1.9409   -0.1108 c   0  0  0  0  0  0  0  0  0  0  0  0
    2.4614   -1.3298    0.0820 c   0  0  0  0  0  0  0  0  0  0  0  0
    2.5770    0.0546    0.0952 c   0  0  0  0  0  0  0  0  0  0  0  0
    3.8853    0.7552    0.2811 c   0  0  0  0  0  0  0  0  0  0  0  0
    1.4085    0.7817   -0.0788 c   0  0  0  0  0  0  0  0  0  0  0  0
    1.4874    2.1337   -0.0619 f   0  0  0  0  0  0  0  0  0  0  0  0
    0.1544    0.2003   -0.2484 c   0  0  0  0  0  0  0  0  0  0  0  0
   -0.9974    1.0925   -0.3770 c   0  0  0  0  0  0  0  0  0  0  0  0
   -2.1662    0.9387    0.2212 c   0  0  0  0  0  0  0  0  0  0  0  0
   -2.5239   -0.0351    1.0484 f   0  0  0  0  0  0  0  0  0  0  0  0
   -3.1794    1.7906    0.0872 f   0  0  0  0  0  0  0  0  0  0  0  0
   -2.4869   -3.5138   -0.3835 h   0  0  0  0  0  0  0  0  0  0  0  0
   -0.9207   -3.6283    0.5537 h   0  0  0  0  0  0  0  0  0  0  0  0
   -1.8741   -1.3225   -1.2152 h   0  0  0  0  0  0  0  0  0  0  0  0
    1.1843   -3.0174   -0.1544 h   0  0  0  0  0  0  0  0  0  0  0  0
    3.3481   -1.9320    0.2126 h   0  0  0  0  0  0  0  0  0  0  0  0
    4.6796    0.0413    0.4790 h   0  0  0  0  0  0  0  0  0  0  0  0
    3.8220    1.4587    1.1101 h   0  0  0  0  0  0  0  0  0  0  0  0
    4.1369    1.3258   -0.6125 h   0  0  0  0  0  0  0  0  0  0  0  0
   -0.8614    1.9968   -0.9526 h   0  0  0  0  0  0  0  0  0  0  0  0
M  END
