
  xtb     02032211353D
 xtb: 6.4.1 (23d549d)
 20 20  0     0  0            999 V2000
    3.6948   -1.2721   -0.1546 C   0  0  0  0  0  0  0  0  0  0  0  0
    2.4499   -1.6794    0.0644 C   0  0  0  0  0  0  0  0  0  0  0  0
    1.2338   -0.8736    0.0465 C   0  0  0  0  0  0  0  0  0  0  0  0
    0.0020   -1.5245    0.0921 C   0  0  0  0  0  0  0  0  0  0  0  0
   -1.2314   -0.8755    0.0687 C   0  0  0  0  0  0  0  0  0  0  0  0
   -2.4458   -1.6831    0.1086 C   0  0  0  0  0  0  0  0  0  0  0  0
   -3.6950   -1.2778   -0.0887 C   0  0  0  0  0  0  0  0  0  0  0  0
   -1.2071    0.5207    0.0158 C   0  0  0  0  0  0  0  0  0  0  0  0
   -2.3345    1.2486    0.0117 F   0  0  0  0  0  0  0  0  0  0  0  0
   -0.0011    1.2076   -0.0165 C   0  0  0  0  0  0  0  0  0  0  0  0
   -0.0025    2.5483   -0.0568 F   0  0  0  0  0  0  0  0  0  0  0  0
    1.2064    0.5226   -0.0060 C   0  0  0  0  0  0  0  0  0  0  0  0
    2.3324    1.2521   -0.0304 F   0  0  0  0  0  0  0  0  0  0  0  0
    4.5121   -1.9723   -0.1202 H   0  0  0  0  0  0  0  0  0  0  0  0
    3.9556   -0.2537   -0.3771 H   0  0  0  0  0  0  0  0  0  0  0  0
    2.2689   -2.7276    0.2671 H   0  0  0  0  0  0  0  0  0  0  0  0
    0.0032   -2.6036    0.1378 H   0  0  0  0  0  0  0  0  0  0  0  0
   -2.2596   -2.7310    0.3086 H   0  0  0  0  0  0  0  0  0  0  0  0
   -3.9612   -0.2598   -0.3071 H   0  0  0  0  0  0  0  0  0  0  0  0
   -4.5104   -1.9792   -0.0395 H   0  0  0  0  0  0  0  0  0  0  0  0
  1  2  2  0  0  0  0
  2  3  1  0  0  0  0
  3  4  4  0  0  0  0
  4  5  4  0  0  0  0
  5  6  1  0  0  0  0
  6  7  2  0  0  0  0
  5  8  4  0  0  0  0
  8  9  1  0  0  0  0
  8 10  4  0  0  0  0
 10 11  1  0  0  0  0
  3 12  4  0  0  0  0
 10 12  4  0  0  0  0
 12 13  1  0  0  0  0
  1 14  1  0  0  0  0
  1 15  1  0  0  0  0
  2 16  1  0  0  0  0
  4 17  1  0  0  0  0
  6 18  1  0  0  0  0
  7 19  1  0  0  0  0
  7 20  1  0  0  0  0
M  END
