
  xtb     02032211353D
 xtb: 6.4.1 (23d549d)
 24 24  0     0  0            999 V2000
   -4.5741   -0.5502    0.4589 C   0  0  0  0  0  0  0  0  0  0  0  0
   -3.5643   -1.0920   -0.2090 C   0  0  0  0  0  0  0  0  0  0  0  0
   -2.1810   -0.6199   -0.1915 C   0  0  0  0  0  0  0  0  0  0  0  0
   -1.1664   -1.5728   -0.2226 C   0  0  0  0  0  0  0  0  0  0  0  0
    0.1712   -1.2295   -0.1429 C   0  0  0  0  0  0  0  0  0  0  0  0
    0.4986    0.1116   -0.0452 C   0  0  0  0  0  0  0  0  0  0  0  0
    1.8176    0.6045    0.0409 O   0  0  0  0  0  0  0  0  0  0  0  0
    2.8391   -0.2206    0.0311 C   0  0  0  0  0  0  0  0  0  0  0  0
    2.9446   -0.9661   -1.0853 F   0  0  0  0  0  0  0  0  0  0  0  0
    3.9635    0.4838    0.1225 F   0  0  0  0  0  0  0  0  0  0  0  0
    2.8560   -1.1015    1.0495 F   0  0  0  0  0  0  0  0  0  0  0  0
   -0.4846    1.0845   -0.0458 C   0  0  0  0  0  0  0  0  0  0  0  0
   -1.8306    0.7415   -0.1197 C   0  0  0  0  0  0  0  0  0  0  0  0
   -2.8374    1.7990   -0.1980 C   0  0  0  0  0  0  0  0  0  0  0  0
   -2.7568    2.9676    0.4232 C   0  0  0  0  0  0  0  0  0  0  0  0
   -5.5639   -0.9722    0.4184 H   0  0  0  0  0  0  0  0  0  0  0  0
   -4.4459    0.3134    1.0891 H   0  0  0  0  0  0  0  0  0  0  0  0
   -3.7280   -1.9966   -0.7821 H   0  0  0  0  0  0  0  0  0  0  0  0
   -1.4308   -2.6175   -0.2934 H   0  0  0  0  0  0  0  0  0  0  0  0
    0.9204   -2.0041   -0.1623 H   0  0  0  0  0  0  0  0  0  0  0  0
   -0.1851    2.1190   -0.0109 H   0  0  0  0  0  0  0  0  0  0  0  0
   -3.6936    1.5759   -0.8215 H   0  0  0  0  0  0  0  0  0  0  0  0
   -1.9420    3.2094    1.0849 H   0  0  0  0  0  0  0  0  0  0  0  0
   -3.5188    3.7195    0.3108 H   0  0  0  0  0  0  0  0  0  0  0  0
  1  2  2  0  0  0  0
  2  3  1  0  0  0  0
  3  4  4  0  0  0  0
  4  5  4  0  0  0  0
  5  6  4  0  0  0  0
  6  7  1  0  0  0  0
  7  8  1  0  0  0  0
  8  9  1  0  0  0  0
  8 10  1  0  0  0  0
  8 11  1  0  0  0  0
  6 12  4  0  0  0  0
  3 13  4  0  0  0  0
 12 13  4  0  0  0  0
 13 14  1  0  0  0  0
 14 15  2  0  0  0  0
  1 16  1  0  0  0  0
  1 17  1  0  0  0  0
  2 18  1  0  0  0  0
  4 19  1  0  0  0  0
  5 20  1  0  0  0  0
 12 21  1  0  0  0  0
 14 22  1  0  0  0  0
 15 23  1  0  0  0  0
 15 24  1  0  0  0  0
M  END
