19

C          1.62879        0.42519        1.41170
C          2.33060        0.07910        0.32430
C          3.07740        1.07950       -0.49550
N          4.20480        0.64980       -1.13250
C          4.96700        1.45080       -1.91370
C          4.60980        2.77710       -2.09470
C          3.46850        3.27060       -1.46950
C          2.66370        2.44200       -0.65140
C          1.42990        2.97100        0.03470
C          0.31523        2.29078        0.36709
F          0.14058        0.96679        0.13789
F         -0.69509        2.95670        0.98648
H          1.10318       -0.33584        1.98007
H          1.56424        1.45360        1.75211
H          2.32686       -0.97187        0.08027
H          5.85160        1.05360       -2.39320
H          5.21660        3.42380       -2.71560
H          3.25150        4.30740       -1.64200
H          1.39458        4.01230        0.31133
19

C          1.00347        0.14174        0.49617
C          2.33060        0.07910        0.32430
C          3.07740        1.07950       -0.49550
N          4.20480        0.64980       -1.13250
C          4.96700        1.45080       -1.91370
C          4.60980        2.77710       -2.09470
C          3.46850        3.27060       -1.46950
C          2.66370        2.44200       -0.65140
C          1.42990        2.97100        0.03470
C          0.89683        2.56302        1.20306
F          1.42714        1.58419        1.97548
F         -0.23040        3.17407        1.65453
H          0.50161       -0.60540        1.10313
H          0.40066        0.92317        0.04486
H          2.82840       -0.73898        0.82134
H          5.85160        1.05360       -2.39320
H          5.21660        3.42380       -2.71560
H          3.25150        4.30740       -1.64200
H          0.87954        3.77287       -0.43025
19

C          1.34918       -0.67606       -0.18686
C          2.33060        0.07910        0.32430
C          3.07740        1.07950       -0.49550
N          4.20480        0.64980       -1.13250
C          4.96700        1.45080       -1.91370
C          4.60980        2.77710       -2.09470
C          3.46850        3.27060       -1.46950
C          2.66370        2.44200       -0.65140
C          1.42990        2.97100        0.03470
C          0.16806        2.99115       -0.43756
F         -0.19472        2.49991       -1.64713
F         -0.81258        3.51646        0.34361
H          0.83057       -1.38899        0.44659
H          1.04743       -0.60158       -1.22662
H          2.54468       -0.07747        1.37013
H          5.85160        1.05360       -2.39320
H          5.21660        3.42380       -2.71560
H          3.25150        4.30740       -1.64200
H          1.52384        3.39029        1.02335
19

C          2.58662       -0.11515        1.62486
C          2.33060        0.07910        0.32430
C          3.07740        1.07950       -0.49550
N          4.20480        0.64980       -1.13250
C          4.96700        1.45080       -1.91370
C          4.60980        2.77710       -2.09470
C          3.46850        3.27060       -1.46950
C          2.66370        2.44200       -0.65140
C          1.42990        2.97100        0.03470
C          1.34380        3.54151        1.25239
F          2.40617        3.74803        2.06767
F          0.12683        3.95589        1.69412
H          2.02101       -0.85557        2.18195
H          3.35001        0.44808        2.15183
H          1.55220       -0.53834       -0.09638
H          5.85160        1.05360       -2.39320
H          5.21660        3.42380       -2.71560
H          3.25150        4.30740       -1.64200
H          0.48266        2.90628       -0.47580
19

C          1.34918       -0.67606       -0.18686
C          2.33060        0.07910        0.32430
C          3.07740        1.07950       -0.49550
N          4.20480        0.64980       -1.13250
C          4.96700        1.45080       -1.91370
C          4.60980        2.77710       -2.09470
C          3.46850        3.27060       -1.46950
C          2.66370        2.44200       -0.65140
C          1.42990        2.97100        0.03470
C          0.60559        3.94898       -0.38927
F          0.76364        4.61806       -1.55688
F         -0.46290        4.28177        0.38236
H          0.83057       -1.38899        0.44659
H          1.04743       -0.60158       -1.22662
H          2.54468       -0.07747        1.37013
H          5.85160        1.05360       -2.39320
H          5.21660        3.42380       -2.71560
H          3.25150        4.30740       -1.64200
H          1.13533        2.54200        0.97877
19

C          1.34918       -0.67606       -0.18686
C          2.33060        0.07910        0.32430
C          3.07740        1.07950       -0.49550
N          4.20480        0.64980       -1.13250
C          4.96700        1.45080       -1.91370
C          4.60980        2.77710       -2.09470
C          3.46850        3.27060       -1.46950
C          2.66370        2.44200       -0.65140
C          1.42990        2.97100        0.03470
C          1.19973        4.22709        0.46473
F          2.07796        5.24878        0.32034
F          0.01182        4.50383        1.06482
H          0.83057       -1.38899        0.44659
H          1.04743       -0.60158       -1.22662
H          2.54468       -0.07747        1.37013
H          5.85160        1.05360       -2.39320
H          5.21660        3.42380       -2.71560
H          3.25150        4.30740       -1.64200
H          0.60919        2.29741        0.22119
19

C          1.34918       -0.67606       -0.18686
C          2.33060        0.07910        0.32430
C          3.07740        1.07950       -0.49550
N          4.20480        0.64980       -1.13250
C          4.96700        1.45080       -1.91370
C          4.60980        2.77710       -2.09470
C          3.46850        3.27060       -1.46950
C          2.66370        2.44200       -0.65140
C          1.42990        2.97100        0.03470
C          1.34380        3.54151        1.25239
F          2.40617        3.74803        2.06767
F          0.12683        3.95589        1.69412
H          0.83057       -1.38899        0.44659
H          1.04743       -0.60158       -1.22662
H          2.54468       -0.07747        1.37013
H          5.85160        1.05360       -2.39320
H          5.21660        3.42380       -2.71560
H          3.25150        4.30740       -1.64200
H          0.48266        2.90628       -0.47580
19

C          2.58662       -0.11515        1.62486
C          2.33060        0.07910        0.32430
C          3.07740        1.07950       -0.49550
N          4.20480        0.64980       -1.13250
C          4.96700        1.45080       -1.91370
C          4.60980        2.77710       -2.09470
C          3.46850        3.27060       -1.46950
C          2.66370        2.44200       -0.65140
C          1.42990        2.97100        0.03470
C          0.16806        2.99115       -0.43756
F         -0.19472        2.49991       -1.64713
F         -0.81258        3.51646        0.34361
H          2.02101       -0.85557        2.18195
H          3.35001        0.44808        2.15183
H          1.55220       -0.53834       -0.09638
H          5.85160        1.05360       -2.39320
H          5.21660        3.42380       -2.71560
H          3.25150        4.30740       -1.64200
H          1.52384        3.39029        1.02335
19

C          1.00347        0.14174        0.49617
C          2.33060        0.07910        0.32430
C          3.07740        1.07950       -0.49550
N          4.20480        0.64980       -1.13250
C          4.96700        1.45080       -1.91370
C          4.60980        2.77710       -2.09470
C          3.46850        3.27060       -1.46950
C          2.66370        2.44200       -0.65140
C          1.42990        2.97100        0.03470
C          1.19973        4.22709        0.46473
F          2.07796        5.24878        0.32034
F          0.01182        4.50383        1.06482
H          0.50161       -0.60540        1.10313
H          0.40066        0.92317        0.04486
H          2.82840       -0.73898        0.82134
H          5.85160        1.05360       -2.39320
H          5.21660        3.42380       -2.71560
H          3.25150        4.30740       -1.64200
H          0.60919        2.29741        0.22119
19

C          1.62879        0.42519        1.41170
C          2.33060        0.07910        0.32430
C          3.07740        1.07950       -0.49550
N          4.20480        0.64980       -1.13250
C          4.96700        1.45080       -1.91370
C          4.60980        2.77710       -2.09470
C          3.46850        3.27060       -1.46950
C          2.66370        2.44200       -0.65140
C          1.42990        2.97100        0.03470
C          0.16806        2.99115       -0.43756
F         -0.19472        2.49991       -1.64713
F         -0.81258        3.51646        0.34361
H          1.10318       -0.33584        1.98007
H          1.56424        1.45360        1.75211
H          2.32686       -0.97187        0.08027
H          5.85160        1.05360       -2.39320
H          5.21660        3.42380       -2.71560
H          3.25150        4.30740       -1.64200
H          1.52384        3.39029        1.02335
