20

C          2.78619        0.28516       -1.14569
C          2.36320       -0.10760        0.06080
C          3.00230       -1.19330        0.83160
C          2.67950       -2.56120        0.79590
C          3.49630       -3.27560        1.66360
S          3.62280       -4.89250        2.08250
C          4.89860       -4.62520        3.18530
C          5.52860       -5.70930        3.96590
C          5.10483       -6.08556        5.17712
C          5.22400       -3.25770        3.21870
C          4.40940       -2.54370        2.34850
S          4.28220       -0.92660        1.93010
H          2.27060        1.08954       -1.66036
H          3.63564       -0.17573       -1.63595
H          1.50483        0.39459        0.49671
H          1.90800       -3.01290        0.18810
H          6.37840       -6.22710        3.53123
H          4.26178       -5.61050        5.66523
H          5.61189       -6.89170        5.69749
H          5.99340       -2.80580        3.82890
20

C          1.31226        0.58989        0.50561
C          2.36320       -0.10760        0.06080
C          3.00230       -1.19330        0.83160
C          2.67950       -2.56120        0.79590
C          3.49630       -3.27560        1.66360
S          3.62280       -4.89250        2.08250
C          4.89860       -4.62520        3.18530
C          5.52860       -5.70930        3.96590
C          6.58831       -6.40368        3.53804
C          5.22400       -3.25770        3.21870
C          4.40940       -2.54370        2.34850
S          4.28220       -0.92660        1.93010
H          0.89006        1.37719       -0.11053
H          0.86017        0.39649        1.47130
H          2.77029        0.13674       -0.91572
H          1.90800       -3.01290        0.18810
H          5.10902       -5.95212        4.93760
H          7.05465       -6.20962        2.57912
H          7.00460       -7.18794        4.16206
H          5.99340       -2.80580        3.82890
20

C          2.74050        1.17293        0.14265
C          2.36320       -0.10760        0.06080
C          3.00230       -1.19330        0.83160
C          2.67950       -2.56120        0.79590
C          3.49630       -3.27560        1.66360
S          3.62280       -4.89250        2.08250
C          4.89860       -4.62520        3.18530
C          5.52860       -5.70930        3.96590
C          5.10483       -6.08556        5.17712
C          5.22400       -3.25770        3.21870
C          4.40940       -2.54370        2.34850
S          4.28220       -0.92660        1.93010
H          2.22953        1.92284       -0.45257
H          3.54837        1.49471        0.78929
H          1.54698       -0.36461       -0.60759
H          1.90800       -3.01290        0.18810
H          6.37840       -6.22710        3.53123
H          4.26178       -5.61050        5.66523
H          5.61189       -6.89170        5.69749
H          5.99340       -2.80580        3.82890
20

C          1.31226        0.58989        0.50561
C          2.36320       -0.10760        0.06080
C          3.00230       -1.19330        0.83160
C          2.67950       -2.56120        0.79590
C          3.49630       -3.27560        1.66360
S          3.62280       -4.89250        2.08250
C          4.89860       -4.62520        3.18530
C          5.52860       -5.70930        3.96590
C          5.10483       -6.08556        5.17712
C          5.22400       -3.25770        3.21870
C          4.40940       -2.54370        2.34850
S          4.28220       -0.92660        1.93010
H          0.89006        1.37719       -0.11053
H          0.86017        0.39649        1.47130
H          2.77029        0.13674       -0.91572
H          1.90800       -3.01290        0.18810
H          6.37840       -6.22710        3.53123
H          4.26178       -5.61050        5.66523
H          5.61189       -6.89170        5.69749
H          5.99340       -2.80580        3.82890
20

C          2.78619        0.28516       -1.14569
C          2.36320       -0.10760        0.06080
C          3.00230       -1.19330        0.83160
C          2.67950       -2.56120        0.79590
C          3.49630       -3.27560        1.66360
S          3.62280       -4.89250        2.08250
C          4.89860       -4.62520        3.18530
C          5.52860       -5.70930        3.96590
C          6.58831       -6.40368        3.53804
C          5.22400       -3.25770        3.21870
C          4.40940       -2.54370        2.34850
S          4.28220       -0.92660        1.93010
H          2.27060        1.08954       -1.66036
H          3.63564       -0.17573       -1.63595
H          1.50483        0.39459        0.49671
H          1.90800       -3.01290        0.18810
H          5.10902       -5.95212        4.93760
H          7.05465       -6.20962        2.57912
H          7.00460       -7.18794        4.16206
H          5.99340       -2.80580        3.82890
20

C          1.31226        0.58989        0.50561
C          2.36320       -0.10760        0.06080
C          3.00230       -1.19330        0.83160
C          2.67950       -2.56120        0.79590
C          3.49630       -3.27560        1.66360
S          3.62280       -4.89250        2.08250
C          4.89860       -4.62520        3.18530
C          5.52860       -5.70930        3.96590
C          6.80881       -5.68962        4.35176
C          5.22400       -3.25770        3.21870
C          4.40940       -2.54370        2.34850
S          4.28220       -0.92660        1.93010
H          0.89006        1.37719       -0.11053
H          0.86017        0.39649        1.47130
H          2.77029        0.13674       -0.91572
H          1.90800       -3.01290        0.18810
H          4.91851       -6.56451        4.24087
H          7.46992       -4.86519        4.11112
H          7.21000       -6.51879        4.92561
H          5.99340       -2.80580        3.82890
20

C          2.78619        0.28516       -1.14569
C          2.36320       -0.10760        0.06080
C          3.00230       -1.19330        0.83160
C          2.67950       -2.56120        0.79590
C          3.49630       -3.27560        1.66360
S          3.62280       -4.89250        2.08250
C          4.89860       -4.62520        3.18530
C          5.52860       -5.70930        3.96590
C          6.80881       -5.68962        4.35176
C          5.22400       -3.25770        3.21870
C          4.40940       -2.54370        2.34850
S          4.28220       -0.92660        1.93010
H          2.27060        1.08954       -1.66036
H          3.63564       -0.17573       -1.63595
H          1.50483        0.39459        0.49671
H          1.90800       -3.01290        0.18810
H          4.91851       -6.56451        4.24087
H          7.46992       -4.86519        4.11112
H          7.21000       -6.51879        4.92561
H          5.99340       -2.80580        3.82890
20

C          2.26496        1.15016        0.50486
C          2.36320       -0.10760        0.06080
C          3.00230       -1.19330        0.83160
C          2.67950       -2.56120        0.79590
C          3.49630       -3.27560        1.66360
S          3.62280       -4.89250        2.08250
C          4.89860       -4.62520        3.18530
C          5.52860       -5.70930        3.96590
C          6.58831       -6.40368        3.53804
C          5.22400       -3.25770        3.21870
C          4.40940       -2.54370        2.34850
S          4.28220       -0.92660        1.93010
H          1.78388        1.90200       -0.11242
H          2.65309        1.45149        1.47073
H          1.95485       -0.34424       -0.91709
H          1.90800       -3.01290        0.18810
H          5.10902       -5.95212        4.93760
H          7.05465       -6.20962        2.57912
H          7.00460       -7.18794        4.16206
H          5.99340       -2.80580        3.82890
20

C          1.35853       -0.30895       -0.79880
C          2.36320       -0.10760        0.06080
C          3.00230       -1.19330        0.83160
C          2.67950       -2.56120        0.79590
C          3.49630       -3.27560        1.66360
S          3.62280       -4.89250        2.08250
C          4.89860       -4.62520        3.18530
C          5.52860       -5.70930        3.96590
C          6.80881       -5.68962        4.35176
C          5.22400       -3.25770        3.21870
C          4.40940       -2.54370        2.34850
S          4.28220       -0.92660        1.93010
H          0.93164        0.53350       -1.33338
H          0.94853       -1.29479       -0.98419
H          2.72761        0.90541        0.20236
H          1.90800       -3.01290        0.18810
H          4.91851       -6.56451        4.24087
H          7.46992       -4.86519        4.11112
H          7.21000       -6.51879        4.92561
H          5.99340       -2.80580        3.82890
20

C          1.08384       -0.13646       -0.32808
C          2.36320       -0.10760        0.06080
C          3.00230       -1.19330        0.83160
C          2.67950       -2.56120        0.79590
C          3.49630       -3.27560        1.66360
S          3.62280       -4.89250        2.08250
C          4.89860       -4.62520        3.18530
C          5.52860       -5.70930        3.96590
C          6.80881       -5.68962        4.35176
C          5.22400       -3.25770        3.21870
C          4.40940       -2.54370        2.34850
S          4.28220       -0.92660        1.93010
H          0.67459        0.69571       -0.89178
H          0.43112       -0.97043       -0.09832
H          2.96383        0.75839       -0.20057
H          1.90800       -3.01290        0.18810
H          4.91851       -6.56451        4.24087
H          7.46992       -4.86519        4.11112
H          7.21000       -6.51879        4.92561
H          5.99340       -2.80580        3.82890
