
  xtb     02032211353D
 xtb: 6.4.1 (23d549d)
 48 48  0     0  0            999 V2000
    3.8009   -2.5405    0.3714 C   0  0  0  0  0  0  0  0  0  0  0  0
    3.7062   -1.2964   -0.0819 C   0  0  0  0  0  0  0  0  0  0  0  0
    2.5055   -0.4884   -0.0343 C   0  0  0  0  0  0  0  0  0  0  0  0
    1.2126   -0.9446   -0.0292 C   0  0  0  0  0  0  0  0  0  0  0  0
    0.3366    0.1020   -0.0712 N   0  0  0  0  0  0  0  0  0  0  0  0
   -1.4347    0.1222   -0.0381 Si  0  0  0  0  0  0  0  0  0  0  0  0
   -1.8881    1.0607    1.5861 C   0  0  0  0  0  0  0  0  0  0  0  0
   -3.3499    0.8805    1.9935 C   0  0  0  0  0  0  0  0  0  0  0  0
   -0.9696    0.6943    2.7527 C   0  0  0  0  0  0  0  0  0  0  0  0
   -1.9595    1.2076   -1.5451 C   0  0  0  0  0  0  0  0  0  0  0  0
   -1.0749    0.9915   -2.7735 C   0  0  0  0  0  0  0  0  0  0  0  0
   -3.4281    1.0200   -1.9241 C   0  0  0  0  0  0  0  0  0  0  0  0
   -2.1772   -1.6496   -0.1204 C   0  0  0  0  0  0  0  0  0  0  0  0
   -1.8037   -2.4012   -1.3994 C   0  0  0  0  0  0  0  0  0  0  0  0
   -1.8559   -2.5090    1.1034 C   0  0  0  0  0  0  0  0  0  0  0  0
    1.0859    1.2469   -0.1039 C   0  0  0  0  0  0  0  0  0  0  0  0
    2.4223    0.9444   -0.0771 C   0  0  0  0  0  0  0  0  0  0  0  0
    3.4888    1.9238   -0.0563 C   0  0  0  0  0  0  0  0  0  0  0  0
    4.6978    1.7494    0.4637 C   0  0  0  0  0  0  0  0  0  0  0  0
    4.7133   -3.1062    0.2892 H   0  0  0  0  0  0  0  0  0  0  0  0
    2.9729   -3.0355    0.8506 H   0  0  0  0  0  0  0  0  0  0  0  0
    4.5655   -0.8228   -0.5390 H   0  0  0  0  0  0  0  0  0  0  0  0
    0.8638   -1.9560   -0.0326 H   0  0  0  0  0  0  0  0  0  0  0  0
   -1.7415    2.1298    1.3922 H   0  0  0  0  0  0  0  0  0  0  0  0
   -3.5671   -0.1608    2.2161 H   0  0  0  0  0  0  0  0  0  0  0  0
   -4.0183    1.2049    1.2004 H   0  0  0  0  0  0  0  0  0  0  0  0
   -3.5708    1.4681    2.8834 H   0  0  0  0  0  0  0  0  0  0  0  0
   -1.0786   -0.3522    3.0234 H   0  0  0  0  0  0  0  0  0  0  0  0
   -1.2114    1.2965    3.6273 H   0  0  0  0  0  0  0  0  0  0  0  0
    0.0715    0.8711    2.4953 H   0  0  0  0  0  0  0  0  0  0  0  0
   -1.8401    2.2556   -1.2470 H   0  0  0  0  0  0  0  0  0  0  0  0
   -1.1695   -0.0233   -3.1499 H   0  0  0  0  0  0  0  0  0  0  0  0
   -0.0294    1.1671   -2.5346 H   0  0  0  0  0  0  0  0  0  0  0  0
   -1.3630    1.6755   -3.5707 H   0  0  0  0  0  0  0  0  0  0  0  0
   -3.6162    0.0034   -2.2594 H   0  0  0  0  0  0  0  0  0  0  0  0
   -3.7005    1.6967   -2.7328 H   0  0  0  0  0  0  0  0  0  0  0  0
   -4.0795    1.2251   -1.0787 H   0  0  0  0  0  0  0  0  0  0  0  0
   -3.2652   -1.5187   -0.1355 H   0  0  0  0  0  0  0  0  0  0  0  0
   -0.7279   -2.5234   -1.4888 H   0  0  0  0  0  0  0  0  0  0  0  0
   -2.1572   -1.8717   -2.2795 H   0  0  0  0  0  0  0  0  0  0  0  0
   -2.2583   -3.3915   -1.3990 H   0  0  0  0  0  0  0  0  0  0  0  0
   -0.7853   -2.6479    1.2229 H   0  0  0  0  0  0  0  0  0  0  0  0
   -2.3149   -3.4920    1.0012 H   0  0  0  0  0  0  0  0  0  0  0  0
   -2.2404   -2.0536    2.0116 H   0  0  0  0  0  0  0  0  0  0  0  0
    0.6117    2.2085   -0.1190 H   0  0  0  0  0  0  0  0  0  0  0  0
    3.2242    2.8853   -0.4819 H   0  0  0  0  0  0  0  0  0  0  0  0
    4.9885    0.8302    0.9421 H   0  0  0  0  0  0  0  0  0  0  0  0
    5.4355    2.5340    0.4455 H   0  0  0  0  0  0  0  0  0  0  0  0
  1  2  2  0  0  0  0
  2  3  1  0  0  0  0
  3  4  2  0  0  0  0
  4  5  4  0  0  0  0
  5  6  1  0  0  0  0
  6  7  1  0  0  0  0
  7  8  1  0  0  0  0
  7  9  1  0  0  0  0
  6 10  1  0  0  0  0
 10 11  1  0  0  0  0
 10 12  1  0  0  0  0
  6 13  1  0  0  0  0
 13 14  1  0  0  0  0
 13 15  1  0  0  0  0
  5 16  4  0  0  0  0
  3 17  1  0  0  0  0
 16 17  2  0  0  0  0
 17 18  1  0  0  0  0
 18 19  2  0  0  0  0
  1 20  1  0  0  0  0
  1 21  1  0  0  0  0
  2 22  1  0  0  0  0
  4 23  1  0  0  0  0
  7 24  1  0  0  0  0
  8 25  1  0  0  0  0
  8 26  1  0  0  0  0
  8 27  1  0  0  0  0
  9 28  1  0  0  0  0
  9 29  1  0  0  0  0
  9 30  1  0  0  0  0
 10 31  1  0  0  0  0
 11 32  1  0  0  0  0
 11 33  1  0  0  0  0
 11 34  1  0  0  0  0
 12 35  1  0  0  0  0
 12 36  1  0  0  0  0
 12 37  1  0  0  0  0
 13 38  1  0  0  0  0
 14 39  1  0  0  0  0
 14 40  1  0  0  0  0
 14 41  1  0  0  0  0
 15 42  1  0  0  0  0
 15 43  1  0  0  0  0
 15 44  1  0  0  0  0
 16 45  1  0  0  0  0
 18 46  1  0  0  0  0
 19 47  1  0  0  0  0
 19 48  1  0  0  0  0
M  END
