
 OpenBabel02012214093D

 27 27  0  0  0  0  0  0  0  0999 V2000
    0.9768   -0.0357   -0.0565 C   0  0  0  0  0  0  0  0  0  0  0  0
    2.4576   -0.0297   -0.0560 C   0  0  0  0  0  0  0  0  0  0  0  0
    3.3078    1.0537   -0.0522 C   0  0  0  0  0  0  0  0  0  0  0  0
    4.5854    0.5576   -0.0498 N   0  0  0  0  0  0  0  0  0  0  0  0
    5.8380    1.3366   -0.0343 C   0  0  0  0  0  0  0  0  0  0  0  0
    5.8897    2.2147    1.2308 C   0  0  0  0  0  0  0  0  0  0  0  0
    7.0836    0.4221   -0.0345 C   0  0  0  0  0  0  0  0  0  0  0  0
    5.9119    2.2394   -1.2808 C   0  0  0  0  0  0  0  0  0  0  0  0
    4.6107   -0.7913   -0.0543 N   0  0  0  0  0  0  0  0  0  0  0  0
    3.3232   -1.1526   -0.0585 C   0  0  0  0  0  0  0  0  0  0  0  0
    2.9469   -2.5888   -0.0644 C   0  0  0  0  0  0  0  0  0  0  0  0
    0.5734    0.9823   -0.0568 H   0  0  0  0  0  0  0  0  0  0  0  0
    0.5960   -0.5516    0.8314 H   0  0  0  0  0  0  0  0  0  0  0  0
    0.5964   -0.5523   -0.9440 H   0  0  0  0  0  0  0  0  0  0  0  0
    3.1105    2.1165   -0.0485 H   0  0  0  0  0  0  0  0  0  0  0  0
    5.8551    1.6023    2.1394 H   0  0  0  0  0  0  0  0  0  0  0  0
    5.0483    2.9148    1.2748 H   0  0  0  0  0  0  0  0  0  0  0  0
    6.8101    2.8092    1.2614 H   0  0  0  0  0  0  0  0  0  0  0  0
    7.1064   -0.2241    0.8519 H   0  0  0  0  0  0  0  0  0  0  0  0
    8.0090    1.0099   -0.0365 H   0  0  0  0  0  0  0  0  0  0  0  0
    7.1044   -0.2262   -0.9199 H   0  0  0  0  0  0  0  0  0  0  0  0
    5.0816    2.9527   -1.3168 H   0  0  0  0  0  0  0  0  0  0  0  0
    5.8780    1.6468   -2.2025 H   0  0  0  0  0  0  0  0  0  0  0  0
    6.8410    2.8214   -1.2913 H   0  0  0  0  0  0  0  0  0  0  0  0
    3.8274   -3.2395   -0.0602 H   0  0  0  0  0  0  0  0  0  0  0  0
    2.3573   -2.8224   -0.9564 H   0  0  0  0  0  0  0  0  0  0  0  0
    2.3452   -2.8271    0.8182 H   0  0  0  0  0  0  0  0  0  0  0  0
  1  2  1  0  0  0  0
  1 12  1  0  0  0  0
  1 13  1  0  0  0  0
  1 14  1  0  0  0  0
  2  3  2  0  0  0  0
  2 10  1  0  0  0  0
  3  4  1  0  0  0  0
  3 15  1  0  0  0  0
  4  5  1  0  0  0  0
  4  9  1  0  0  0  0
  5  6  1  0  0  0  0
  5  7  1  0  0  0  0
  5  8  1  0  0  0  0
  6 16  1  0  0  0  0
  6 17  1  0  0  0  0
  6 18  1  0  0  0  0
  7 19  1  0  0  0  0
  7 20  1  0  0  0  0
  7 21  1  0  0  0  0
  8 22  1  0  0  0  0
  8 23  1  0  0  0  0
  8 24  1  0  0  0  0
  9 10  2  0  0  0  0
 10 11  1  0  0  0  0
 11 25  1  0  0  0  0
 11 26  1  0  0  0  0
 11 27  1  0  0  0  0
M  END
