
  xtb     02012214093D
 xtb: 6.4.1 (23d549d)
 27 27  0     0  0            999 V2000
    1.0048   -0.0475   -0.0903 c   0  0  0  0  0  0  0  0  0  0  0  0
    2.4928   -0.0217   -0.0500 c   0  0  0  0  0  0  0  0  0  0  0  0
    3.3297    1.0712   -0.0100 c   0  0  0  0  0  0  0  0  0  0  0  0
    4.5981    0.6099    0.0282 n   0  0  0  0  0  0  0  0  0  0  0  0
    5.8379    1.3696   -0.0100 c   0  0  0  0  0  0  0  0  0  0  0  0
    5.6510    2.7103    0.7023 c   0  0  0  0  0  0  0  0  0  0  0  0
    6.9177    0.5499    0.6969 c   0  0  0  0  0  0  0  0  0  0  0  0
    6.2208    1.5928   -1.4783 c   0  0  0  0  0  0  0  0  0  0  0  0
    4.6249   -0.7214   -0.0046 n   0  0  0  0  0  0  0  0  0  0  0  0
    3.3682   -1.1283   -0.0448 c   0  0  0  0  0  0  0  0  0  0  0  0
    3.0069   -2.5705   -0.0737 c   0  0  0  0  0  0  0  0  0  0  0  0
    0.6070    0.9647   -0.0934 h   0  0  0  0  0  0  0  0  0  0  0  0
    0.6074   -0.5769    0.7759 h   0  0  0  0  0  0  0  0  0  0  0  0
    0.6559   -0.5635   -0.9849 h   0  0  0  0  0  0  0  0  0  0  0  0
    3.0917    2.1151   -0.0013 h   0  0  0  0  0  0  0  0  0  0  0  0
    5.2267    2.5589    1.6924 h   0  0  0  0  0  0  0  0  0  0  0  0
    4.9994    3.3724    0.1377 h   0  0  0  0  0  0  0  0  0  0  0  0
    6.6155    3.1995    0.8109 h   0  0  0  0  0  0  0  0  0  0  0  0
    6.6584    0.4114    1.7437 h   0  0  0  0  0  0  0  0  0  0  0  0
    7.8755    1.0595    0.6333 h   0  0  0  0  0  0  0  0  0  0  0  0
    6.9969   -0.4286    0.2333 h   0  0  0  0  0  0  0  0  0  0  0  0
    5.4414    2.1503   -1.9937 h   0  0  0  0  0  0  0  0  0  0  0  0
    6.3465    0.6341   -1.9753 h   0  0  0  0  0  0  0  0  0  0  0  0
    7.1516    2.1495   -1.5459 h   0  0  0  0  0  0  0  0  0  0  0  0
    3.9109   -3.1724   -0.0663 h   0  0  0  0  0  0  0  0  0  0  0  0
    2.4301   -2.7998   -0.9693 h   0  0  0  0  0  0  0  0  0  0  0  0
    2.3990   -2.8267    0.7937 h   0  0  0  0  0  0  0  0  0  0  0  0
  1  2  1  0  0  0  0
  2  3  4  0  0  0  0
  3  4  4  0  0  0  0
  4  5  1  0  0  0  0
  5  6  1  0  0  0  0
  5  7  1  0  0  0  0
  5  8  1  0  0  0  0
  4  9  1  0  0  0  0
  2 10  4  0  0  0  0
  9 10  4  0  0  0  0
 10 11  1  0  0  0  0
  1 12  1  0  0  0  0
  1 13  1  0  0  0  0
  1 14  1  0  0  0  0
  3 15  1  0  0  0  0
  6 16  1  0  0  0  0
  6 17  1  0  0  0  0
  6 18  1  0  0  0  0
  7 19  1  0  0  0  0
  7 20  1  0  0  0  0
  7 21  1  0  0  0  0
  8 22  1  0  0  0  0
  8 23  1  0  0  0  0
  8 24  1  0  0  0  0
 11 25  1  0  0  0  0
 11 26  1  0  0  0  0
 11 27  1  0  0  0  0
M  END
