36

C          2.59202       -0.31450       -0.07778
C          1.09545       -0.20857       -0.07410
C          0.38019       -0.06585       -1.26456
C         -1.01485        0.02577       -1.24958
C         -1.75240        0.00600       -0.03510
N         -3.21290        0.06400       -0.00900
C         -4.00930       -0.55630        1.02000
C         -5.12540        0.12730        1.55060
S         -5.49560        1.80380        1.03760
C         -5.09410        1.51390       -0.68450
C         -3.97920        0.72380       -1.03530
C         -3.70370        0.52510       -2.40550
C         -4.49240        1.12840       -3.38810
C         -5.57580        1.92710       -3.02330
C         -5.87840        2.11720       -1.67500
C         -5.94100       -0.47820        2.51340
C         -5.67140       -1.77600        2.94640
C         -4.59130       -2.47740        2.41200
C         -3.77050       -1.87910        1.45190
C         -0.99497       -0.18186        1.15275
C          0.39827       -0.27588        1.13119
H          3.00332       -0.25017       -1.10760
H          2.89808       -1.28691        0.36270
H          3.02572        0.51004        0.52625
H          0.90056       -0.03706       -2.21420
H         -1.47900        0.09055       -2.21517
H         -2.89350       -0.11840       -2.72240
H         -4.26820        0.96740       -4.43480
H         -6.18580        2.39270       -3.78650
H         -6.72350        2.73520       -1.39960
H         -6.78580        0.05780        2.92740
H         -6.30660       -2.24200        3.68870
H         -4.39570       -3.49210        2.73390
H         -2.96930       -2.46940        1.02900
H         -1.44839       -0.28482        2.12167
H          0.93535       -0.41344        2.06216
36

C          2.60382       -0.02158       -0.06837
C          1.10370       -0.01381       -0.04515
C          0.39482       -0.69275        0.94767
C         -1.00308       -0.67354        0.96294
C         -1.75240        0.00600       -0.03510
N         -3.21290        0.06400       -0.00900
C         -4.00930       -0.55630        1.02000
C         -5.12540        0.12730        1.55060
S         -5.49560        1.80380        1.03760
C         -5.09410        1.51390       -0.68450
C         -3.97920        0.72380       -1.03530
C         -3.70370        0.52510       -2.40550
C         -4.49240        1.12840       -3.38810
C         -5.57580        1.92710       -3.02330
C         -5.87840        2.11720       -1.67500
C         -5.94100       -0.47820        2.51340
C         -5.67140       -1.77600        2.94640
C         -4.59130       -2.47740        2.41200
C         -3.77050       -1.87910        1.45190
C         -0.99773        0.71971       -1.00519
C          0.39867        0.69934       -1.01348
H          3.02192       -0.62482        0.76537
H          2.98357        1.01781        0.02511
H          2.95970       -0.45305       -1.02754
H          0.92350       -1.23192        1.72436
H         -1.45824       -1.18791        1.78771
H         -2.89350       -0.11840       -2.72240
H         -4.26820        0.96740       -4.43480
H         -6.18580        2.39270       -3.78650
H         -6.72350        2.73520       -1.39960
H         -6.78580        0.05780        2.92740
H         -6.30660       -2.24200        3.68870
H         -4.39570       -3.49210        2.73390
H         -2.96930       -2.46940        1.02900
H         -1.45379        1.32808       -1.76472
H          0.93299        1.25406       -1.77564
36

C          2.60337       -0.06261       -0.00233
C          1.10314       -0.04630       -0.00425
C          0.37016       -1.11711        0.51080
C         -1.02766       -1.08835        0.50940
C         -1.75240        0.00600       -0.03510
N         -3.21290        0.06400       -0.00900
C         -4.00930       -0.55630        1.02000
C         -5.12540        0.12730        1.55060
S         -5.49560        1.80380        1.03760
C         -5.09410        1.51390       -0.68450
C         -3.97920        0.72380       -1.03530
C         -3.70370        0.52510       -2.40550
C         -4.49240        1.12840       -3.38810
C         -5.57580        1.92710       -3.02330
C         -5.87840        2.11720       -1.67500
C         -5.94100       -0.47820        2.51340
C         -5.67140       -1.77600        2.94640
C         -4.59130       -2.47740        2.41200
C         -3.77050       -1.87910        1.45190
C         -0.97401        1.09516       -0.51241
C          0.42215        1.06197       -0.50554
H          3.00086       -1.00481        0.43136
H          2.98476        0.78941        0.59923
H          2.97866        0.03124       -1.04309
H          0.87969       -1.97697        0.92849
H         -1.50269       -1.93662        0.96412
H         -2.89350       -0.11840       -2.72240
H         -4.26820        0.96740       -4.43480
H         -6.18580        2.39270       -3.78650
H         -6.72350        2.73520       -1.39960
H         -6.78580        0.05780        2.92740
H         -6.30660       -2.24200        3.68870
H         -4.39570       -3.49210        2.73390
H         -2.96930       -2.46940        1.02900
H         -1.41106        2.00569       -0.87973
H          0.97510        1.91327       -0.88453
