
  xtb     02012213413D
 xtb: 6.4.1 (23d549d)
 36 39  0     0  0            999 V2000
    2.5042   -0.1478   -0.0231 c   0  0  0  0  0  0  0  0  0  0  0  0
    1.0057   -0.1420   -0.0503 c   0  0  0  0  0  0  0  0  0  0  0  0
    0.3018    0.4482   -1.0901 c   0  0  0  0  0  0  0  0  0  0  0  0
   -1.0789    0.4586   -1.1134 c   0  0  0  0  0  0  0  0  0  0  0  0
   -1.8160   -0.1413   -0.0905 c   0  0  0  0  0  0  0  0  0  0  0  0
   -3.2081   -0.1187   -0.0983 n   0  0  0  0  0  0  0  0  0  0  0  0
   -3.9862   -0.6219    0.9609 c   0  0  0  0  0  0  0  0  0  0  0  0
   -4.9486    0.1906    1.5586 c   0  0  0  0  0  0  0  0  0  0  0  0
   -5.1812    1.8429    0.9545 s   0  0  0  0  0  0  0  0  0  0  0  0
   -4.9066    1.4783   -0.7599 c   0  0  0  0  0  0  0  0  0  0  0  0
   -3.9530    0.5221   -1.1062 c   0  0  0  0  0  0  0  0  0  0  0  0
   -3.8107    0.1764   -2.4470 c   0  0  0  0  0  0  0  0  0  0  0  0
   -4.5450    0.8301   -3.4194 c   0  0  0  0  0  0  0  0  0  0  0  0
   -5.4522    1.8165   -3.0666 c   0  0  0  0  0  0  0  0  0  0  0  0
   -5.6484    2.1272   -1.7335 c   0  0  0  0  0  0  0  0  0  0  0  0
   -5.7304   -0.2814    2.6002 c   0  0  0  0  0  0  0  0  0  0  0  0
   -5.5639   -1.5784    3.0501 c   0  0  0  0  0  0  0  0  0  0  0  0
   -4.6436   -2.4104    2.4327 c   0  0  0  0  0  0  0  0  0  0  0  0
   -3.8702   -1.9422    1.3864 c   0  0  0  0  0  0  0  0  0  0  0  0
   -1.1092   -0.6911    0.9819 c   0  0  0  0  0  0  0  0  0  0  0  0
    0.2707   -0.6935    0.9912 c   0  0  0  0  0  0  0  0  0  0  0  0
    2.9107    0.0353   -1.0149 h   0  0  0  0  0  0  0  0  0  0  0  0
    2.8798   -1.1023    0.3407 h   0  0  0  0  0  0  0  0  0  0  0  0
    2.8719    0.6322    0.6447 h   0  0  0  0  0  0  0  0  0  0  0  0
    0.8403    0.9174   -1.9014 h   0  0  0  0  0  0  0  0  0  0  0  0
   -1.5821    0.9607   -1.9246 h   0  0  0  0  0  0  0  0  0  0  0  0
   -3.1163   -0.6051   -2.7169 h   0  0  0  0  0  0  0  0  0  0  0  0
   -4.4118    0.5629   -4.4569 h   0  0  0  0  0  0  0  0  0  0  0  0
   -6.0191    2.3315   -3.8267 h   0  0  0  0  0  0  0  0  0  0  0  0
   -6.3667    2.8757   -1.4365 h   0  0  0  0  0  0  0  0  0  0  0  0
   -6.4567    0.3757    3.0531 h   0  0  0  0  0  0  0  0  0  0  0  0
   -6.1634   -1.9432    3.8698 h   0  0  0  0  0  0  0  0  0  0  0  0
   -4.5312   -3.4322    2.7623 h   0  0  0  0  0  0  0  0  0  0  0  0
   -3.1659   -2.5938    0.8912 h   0  0  0  0  0  0  0  0  0  0  0  0
   -1.6374   -1.0989    1.8295 h   0  0  0  0  0  0  0  0  0  0  0  0
    0.7876   -1.1300    1.8342 h   0  0  0  0  0  0  0  0  0  0  0  0
  1  2  1  0  0  0  0
  2  3  4  0  0  0  0
  3  4  4  0  0  0  0
  4  5  4  0  0  0  0
  5  6  1  0  0  0  0
  6  7  1  0  0  0  0
  7  8  4  0  0  0  0
  8  9  1  0  0  0  0
  9 10  1  0  0  0  0
  6 11  1  0  0  0  0
 10 11  4  0  0  0  0
 11 12  4  0  0  0  0
 12 13  4  0  0  0  0
 13 14  4  0  0  0  0
 10 15  4  0  0  0  0
 14 15  4  0  0  0  0
  8 16  4  0  0  0  0
 16 17  4  0  0  0  0
 17 18  4  0  0  0  0
  7 19  4  0  0  0  0
 18 19  4  0  0  0  0
  5 20  4  0  0  0  0
  2 21  4  0  0  0  0
 20 21  4  0  0  0  0
  1 22  1  0  0  0  0
  1 23  1  0  0  0  0
  1 24  1  0  0  0  0
  3 25  1  0  0  0  0
  4 26  1  0  0  0  0
 12 27  1  0  0  0  0
 13 28  1  0  0  0  0
 14 29  1  0  0  0  0
 15 30  1  0  0  0  0
 16 31  1  0  0  0  0
 17 32  1  0  0  0  0
 18 33  1  0  0  0  0
 19 34  1  0  0  0  0
 20 35  1  0  0  0  0
 21 36  1  0  0  0  0
M  END
