
 OpenBabel02032210443D

 37 40  0  0  0  0  0  0  0  0999 V2000
    1.2192   -3.1398   -1.1599 F   0  0  0  0  0  0  0  0  0  0  0  0
    2.4186   -2.6485   -1.5217 C   0  0  0  0  0  0  0  0  0  0  0  0
    2.6507   -2.3608   -2.8234 F   0  0  0  0  0  0  0  0  0  0  0  0
    3.3612   -2.4884   -0.5922 C   0  0  0  0  0  0  0  0  0  0  0  0
    4.7313   -2.0021   -0.7941 C   0  0  0  0  0  0  0  0  0  0  0  0
    5.3409   -1.3153    0.2600 C   0  0  0  0  0  0  0  0  0  0  0  0
    6.6767   -0.9238    0.1695 C   0  0  0  0  0  0  0  0  0  0  0  0
    7.4509   -1.2380   -0.9640 C   0  0  0  0  0  0  0  0  0  0  0  0
    8.8324   -0.7738   -1.0447 N   0  0  0  0  0  0  0  0  0  0  0  0
    9.5931   -0.8927    0.1795 C   0  0  0  0  0  0  0  0  0  0  0  0
   10.2085    0.2431    0.7399 C   0  0  0  0  0  0  0  0  0  0  0  0
    9.9477    1.5185    0.2806 O   0  0  0  0  0  0  0  0  0  0  0  0
    9.1052    1.6107   -0.7982 C   0  0  0  0  0  0  0  0  0  0  0  0
    8.9269    0.5416   -1.6807 C   0  0  0  0  0  0  0  0  0  0  0  0
    8.3325    0.7628   -2.9242 C   0  0  0  0  0  0  0  0  0  0  0  0
    7.5230    1.8841   -3.0736 C   0  0  0  0  0  0  0  0  0  0  0  0
    7.4035    2.7897   -2.0155 C   0  0  0  0  0  0  0  0  0  0  0  0
    8.2597    2.7020   -0.9163 C   0  0  0  0  0  0  0  0  0  0  0  0
   10.9627    0.1465    1.9097 C   0  0  0  0  0  0  0  0  0  0  0  0
   11.0067   -1.0606    2.6026 C   0  0  0  0  0  0  0  0  0  0  0  0
   10.3081   -2.1697    2.1202 C   0  0  0  0  0  0  0  0  0  0  0  0
    9.6357   -2.0976    0.8977 C   0  0  0  0  0  0  0  0  0  0  0  0
    6.8362   -1.8910   -2.0367 C   0  0  0  0  0  0  0  0  0  0  0  0
    5.4836   -2.2677   -1.9490 C   0  0  0  0  0  0  0  0  0  0  0  0
    3.0927   -2.7321    0.4325 H   0  0  0  0  0  0  0  0  0  0  0  0
    4.7866   -1.0646    1.1591 H   0  0  0  0  0  0  0  0  0  0  0  0
    7.1017   -0.3475    0.9868 H   0  0  0  0  0  0  0  0  0  0  0  0
    8.3484   -0.0046   -3.6917 H   0  0  0  0  0  0  0  0  0  0  0  0
    6.9108    1.9891   -3.9627 H   0  0  0  0  0  0  0  0  0  0  0  0
    6.6337    3.5552   -2.0490 H   0  0  0  0  0  0  0  0  0  0  0  0
    8.1879    3.4184   -0.1021 H   0  0  0  0  0  0  0  0  0  0  0  0
   11.4655    1.0246    2.3063 H   0  0  0  0  0  0  0  0  0  0  0  0
   11.5461   -1.1287    3.5436 H   0  0  0  0  0  0  0  0  0  0  0  0
   10.2772   -3.0874    2.7000 H   0  0  0  0  0  0  0  0  0  0  0  0
    9.0937   -2.9664    0.5345 H   0  0  0  0  0  0  0  0  0  0  0  0
    7.3882   -2.0941   -2.9451 H   0  0  0  0  0  0  0  0  0  0  0  0
    5.0377   -2.7785   -2.7973 H   0  0  0  0  0  0  0  0  0  0  0  0
  1  2  1  0  0  0  0
  2  3  1  0  0  0  0
  2  4  2  0  0  0  0
  4  5  1  0  0  0  0
  4 25  1  0  0  0  0
  5  6  1  0  0  0  0
  5 24  2  0  0  0  0
  6  7  2  0  0  0  0
  6 26  1  0  0  0  0
  7  8  1  0  0  0  0
  7 27  1  0  0  0  0
  8  9  1  0  0  0  0
  8 23  2  0  0  0  0
  9 10  1  0  0  0  0
  9 14  1  0  0  0  0
 10 11  1  0  0  0  0
 10 22  2  0  0  0  0
 11 12  1  0  0  0  0
 11 19  2  0  0  0  0
 12 13  1  0  0  0  0
 13 14  1  0  0  0  0
 13 18  2  0  0  0  0
 14 15  2  0  0  0  0
 15 16  1  0  0  0  0
 15 28  1  0  0  0  0
 16 17  2  0  0  0  0
 16 29  1  0  0  0  0
 17 18  1  0  0  0  0
 17 30  1  0  0  0  0
 18 31  1  0  0  0  0
 19 20  1  0  0  0  0
 19 32  1  0  0  0  0
 20 21  2  0  0  0  0
 20 33  1  0  0  0  0
 21 22  1  0  0  0  0
 21 34  1  0  0  0  0
 22 35  1  0  0  0  0
 23 24  1  0  0  0  0
 23 36  1  0  0  0  0
 24 37  1  0  0  0  0
M  END
