18

C          0.96150       -0.02690        0.05380
N          2.41760        0.10070        0.06060
C          3.17770        1.22470        0.06070
C          2.69440        2.64900        0.05320
C          4.50560        0.83660        0.06910
C          5.72840        1.69910        0.07290
C          4.48750       -0.54150        0.07350
N          3.20850       -0.96320        0.06820
H          0.44620        0.94950        0.04840
H          0.63710       -0.58470        0.95710
H          0.64590       -0.59030       -0.84910
H          1.59430        2.73880        0.04680
H          3.08380        3.16330       -0.85010
H          3.07400        3.16980        0.95690
H          5.46080        2.77560        0.06830
H          6.33890        1.47970       -0.82780
H          6.32930        1.48510        0.98120
H          5.34800       -1.19730        0.08010
