
  xtb     02012213453D
 xtb: 6.4.1 (23d549d)
 18 18  0     0  0            999 V2000
    1.0087   -0.0188    0.0539 c   0  0  0  0  0  0  0  0  0  0  0  0
    2.4355    0.1380    0.0607 n   0  0  0  0  0  0  0  0  0  0  0  0
    3.1920    1.2642    0.0608 c   0  0  0  0  0  0  0  0  0  0  0  0
    2.6626    2.6550    0.0532 c   0  0  0  0  0  0  0  0  0  0  0  0
    4.5142    0.8487    0.0692 c   0  0  0  0  0  0  0  0  0  0  0  0
    5.7425    1.6926    0.0728 c   0  0  0  0  0  0  0  0  0  0  0  0
    4.4412   -0.5516    0.0736 c   0  0  0  0  0  0  0  0  0  0  0  0
    3.1888   -0.9617    0.0684 n   0  0  0  0  0  0  0  0  0  0  0  0
    0.5155    0.9494    0.0485 h   0  0  0  0  0  0  0  0  0  0  0  0
    0.6976   -0.5769    0.9389 h   0  0  0  0  0  0  0  0  0  0  0  0
    0.7066   -0.5821   -0.8309 h   0  0  0  0  0  0  0  0  0  0  0  0
    1.5767    2.6791    0.0471 h   0  0  0  0  0  0  0  0  0  0  0  0
    3.0207    3.1868   -0.8283 h   0  0  0  0  0  0  0  0  0  0  0  0
    3.0111    3.1928    0.9348 h   0  0  0  0  0  0  0  0  0  0  0  0
    5.4834    2.7484    0.0682 h   0  0  0  0  0  0  0  0  0  0  0  0
    6.3535    1.4799   -0.8042 h   0  0  0  0  0  0  0  0  0  0  0  0
    6.3445    1.4854    0.9572 h   0  0  0  0  0  0  0  0  0  0  0  0
    5.2444   -1.2613    0.0802 h   0  0  0  0  0  0  0  0  0  0  0  0
  1  2  1  0  0  0  0
  2  3  4  0  0  0  0
  3  4  1  0  0  0  0
  3  5  4  0  0  0  0
  5  6  1  0  0  0  0
  5  7  4  0  0  0  0
  2  8  1  0  0  0  0
  7  8  2  0  0  0  0
  1  9  1  0  0  0  0
  1 10  1  0  0  0  0
  1 11  1  0  0  0  0
  4 12  1  0  0  0  0
  4 13  1  0  0  0  0
  4 14  1  0  0  0  0
  6 15  1  0  0  0  0
  6 16  1  0  0  0  0
  6 17  1  0  0  0  0
  7 18  1  0  0  0  0
M  END
