24

C          1.27190       -0.93728        0.26431
C          2.27160       -0.14250       -0.14010
C          3.00950       -0.28730       -1.42630
C          4.16880       -1.09950       -1.44200
C          4.92950       -1.31420       -2.61740
C          6.10560       -2.22720       -2.48350
C          6.12458       -3.55187       -2.66536
C          4.49430       -0.64490       -3.78960
C          3.35690        0.15050       -3.76350
C          2.59730        0.34390       -2.61820
C          3.17820        0.69370       -5.09930
O          2.29440        1.44230       -5.48540
C          4.29990        0.17990       -5.86860
O          4.54020        0.42630       -7.03980
N          5.07490       -0.60470       -5.08950
H          0.79741       -0.75151        1.22261
H          0.90698       -1.77082       -0.32062
H          2.56249        0.66405        0.52791
H          4.47200       -1.58730       -0.52200
H          7.04310       -1.78282       -2.15843
H          5.26312       -4.13859       -2.91732
H          7.05231       -4.09368       -2.51012
H          1.72520        0.97740       -2.67190
H          5.94430       -1.03510       -5.41740
24

C          2.50257        0.80947        0.77370
C          2.27160       -0.14250       -0.14010
C          3.00950       -0.28730       -1.42630
C          4.16880       -1.09950       -1.44200
C          4.92950       -1.31420       -2.61740
C          6.10560       -2.22720       -2.48350
C          7.36028       -1.88738       -2.16967
C          4.49430       -0.64490       -3.78960
C          3.35690        0.15050       -3.76350
C          2.59730        0.34390       -2.61820
C          3.17820        0.69370       -5.09930
O          2.29440        1.44230       -5.48540
C          4.29990        0.17990       -5.86860
O          4.54020        0.42630       -7.03980
N          5.07490       -0.60470       -5.08950
H          1.90777        0.83289        1.68125
H          3.26069        1.57162        0.65342
H          1.48237       -0.85683        0.07946
H          4.47200       -1.58730       -0.52200
H          5.94453       -3.27863       -2.70846
H          7.68613       -0.88151       -1.99116
H          8.12301       -2.65878       -2.13065
H          1.72520        0.97740       -2.67190
H          5.94430       -1.03510       -5.41740
24

C          1.27190       -0.93728        0.26431
C          2.27160       -0.14250       -0.14010
C          3.00950       -0.28730       -1.42630
C          4.16880       -1.09950       -1.44200
C          4.92950       -1.31420       -2.61740
C          6.10560       -2.22720       -2.48350
C          7.36028       -1.88738       -2.16967
C          4.49430       -0.64490       -3.78960
C          3.35690        0.15050       -3.76350
C          2.59730        0.34390       -2.61820
C          3.17820        0.69370       -5.09930
O          2.29440        1.44230       -5.48540
C          4.29990        0.17990       -5.86860
O          4.54020        0.42630       -7.03980
N          5.07490       -0.60470       -5.08950
H          0.79741       -0.75151        1.22261
H          0.90698       -1.77082       -0.32062
H          2.56249        0.66405        0.52791
H          4.47200       -1.58730       -0.52200
H          5.94453       -3.27863       -2.70846
H          7.68613       -0.88151       -1.99116
H          8.12301       -2.65878       -2.13065
H          1.72520        0.97740       -2.67190
H          5.94430       -1.03510       -5.41740
24

C          2.50257        0.80947        0.77370
C          2.27160       -0.14250       -0.14010
C          3.00950       -0.28730       -1.42630
C          4.16880       -1.09950       -1.44200
C          4.92950       -1.31420       -2.61740
C          6.10560       -2.22720       -2.48350
C          6.12458       -3.55187       -2.66536
C          4.49430       -0.64490       -3.78960
C          3.35690        0.15050       -3.76350
C          2.59730        0.34390       -2.61820
C          3.17820        0.69370       -5.09930
O          2.29440        1.44230       -5.48540
C          4.29990        0.17990       -5.86860
O          4.54020        0.42630       -7.03980
N          5.07490       -0.60470       -5.08950
H          1.90777        0.83289        1.68125
H          3.26069        1.57162        0.65342
H          1.48237       -0.85683        0.07946
H          4.47200       -1.58730       -0.52200
H          7.04310       -1.78282       -2.15843
H          5.26312       -4.13859       -2.91732
H          7.05231       -4.09368       -2.51012
H          1.72520        0.97740       -2.67190
H          5.94430       -1.03510       -5.41740
24

C          2.82988       -0.20723        1.07594
C          2.27160       -0.14250       -0.14010
C          3.00950       -0.28730       -1.42630
C          4.16880       -1.09950       -1.44200
C          4.92950       -1.31420       -2.61740
C          6.10560       -2.22720       -2.48350
C          6.85032       -2.43017       -1.39154
C          4.49430       -0.64490       -3.78960
C          3.35690        0.15050       -3.76350
C          2.59730        0.34390       -2.61820
C          3.17820        0.69370       -5.09930
O          2.29440        1.44230       -5.48540
C          4.29990        0.17990       -5.86860
O          4.54020        0.42630       -7.03980
N          5.07490       -0.60470       -5.08950
H          2.20630       -0.08634        1.95601
H          3.88733       -0.37326        1.23189
H          1.19976        0.03272       -0.18282
H          4.47200       -1.58730       -0.52200
H          6.42775       -2.75438       -3.37813
H          6.69869       -1.92837       -0.45611
H          7.69480       -3.11001       -1.44631
H          1.72520        0.97740       -2.67190
H          5.94430       -1.03510       -5.41740
24

C          2.82988       -0.20723        1.07594
C          2.27160       -0.14250       -0.14010
C          3.00950       -0.28730       -1.42630
C          4.16880       -1.09950       -1.44200
C          4.92950       -1.31420       -2.61740
C          6.10560       -2.22720       -2.48350
C          6.23906       -3.25354       -1.63674
C          4.49430       -0.64490       -3.78960
C          3.35690        0.15050       -3.76350
C          2.59730        0.34390       -2.61820
C          3.17820        0.69370       -5.09930
O          2.29440        1.44230       -5.48540
C          4.29990        0.17990       -5.86860
O          4.54020        0.42630       -7.03980
N          5.07490       -0.60470       -5.08950
H          2.20630       -0.08634        1.95601
H          3.88733       -0.37326        1.23189
H          1.19976        0.03272       -0.18282
H          4.47200       -1.58730       -0.52200
H          6.97118       -2.01445       -3.10605
H          5.50012       -3.53953       -0.91425
H          7.16517       -3.81981       -1.63402
H          1.72520        0.97740       -2.67190
H          5.94430       -1.03510       -5.41740
24

C          0.95150        0.05795       -0.03155
C          2.27160       -0.14250       -0.14010
C          3.00950       -0.28730       -1.42630
C          4.16880       -1.09950       -1.44200
C          4.92950       -1.31420       -2.61740
C          6.10560       -2.22720       -2.48350
C          6.23906       -3.25354       -1.63674
C          4.49430       -0.64490       -3.78960
C          3.35690        0.15050       -3.76350
C          2.59730        0.34390       -2.61820
C          3.17820        0.69370       -5.09930
O          2.29440        1.44230       -5.48540
C          4.29990        0.17990       -5.86860
O          4.54020        0.42630       -7.03980
N          5.07490       -0.60470       -5.08950
H          0.50519        0.14832        0.95365
H          0.29357        0.13300       -0.88687
H          2.83912       -0.20672        0.78465
H          4.47200       -1.58730       -0.52200
H          6.97118       -2.01445       -3.10605
H          5.50012       -3.53953       -0.91425
H          7.16517       -3.81981       -1.63402
H          1.72520        0.97740       -2.67190
H          5.94430       -1.03510       -5.41740
24

C          1.27190       -0.93728        0.26431
C          2.27160       -0.14250       -0.14010
C          3.00950       -0.28730       -1.42630
C          4.16880       -1.09950       -1.44200
C          4.92950       -1.31420       -2.61740
C          6.10560       -2.22720       -2.48350
C          6.62377       -3.02054       -3.42706
C          4.49430       -0.64490       -3.78960
C          3.35690        0.15050       -3.76350
C          2.59730        0.34390       -2.61820
C          3.17820        0.69370       -5.09930
O          2.29440        1.44230       -5.48540
C          4.29990        0.17990       -5.86860
O          4.54020        0.42630       -7.03980
N          5.07490       -0.60470       -5.08950
H          0.79741       -0.75151        1.22261
H          0.90698       -1.77082       -0.32062
H          2.56249        0.66405        0.52791
H          4.47200       -1.58730       -0.52200
H          6.57009       -2.29600       -1.50290
H          6.22971       -3.11383       -4.41995
H          7.47147       -3.65197       -3.18001
H          1.72520        0.97740       -2.67190
H          5.94430       -1.03510       -5.41740
24

C          2.50257        0.80947        0.77370
C          2.27160       -0.14250       -0.14010
C          3.00950       -0.28730       -1.42630
C          4.16880       -1.09950       -1.44200
C          4.92950       -1.31420       -2.61740
C          6.10560       -2.22720       -2.48350
C          6.62377       -3.02054       -3.42706
C          4.49430       -0.64490       -3.78960
C          3.35690        0.15050       -3.76350
C          2.59730        0.34390       -2.61820
C          3.17820        0.69370       -5.09930
O          2.29440        1.44230       -5.48540
C          4.29990        0.17990       -5.86860
O          4.54020        0.42630       -7.03980
N          5.07490       -0.60470       -5.08950
H          1.90777        0.83289        1.68125
H          3.26069        1.57162        0.65342
H          1.48237       -0.85683        0.07946
H          4.47200       -1.58730       -0.52200
H          6.57009       -2.29600       -1.50290
H          6.22971       -3.11383       -4.41995
H          7.47147       -3.65197       -3.18001
H          1.72520        0.97740       -2.67190
H          5.94430       -1.03510       -5.41740
24

C          1.57340        0.94065        0.22586
C          2.27160       -0.14250       -0.14010
C          3.00950       -0.28730       -1.42630
C          4.16880       -1.09950       -1.44200
C          4.92950       -1.31420       -2.61740
C          6.10560       -2.22720       -2.48350
C          7.36028       -1.88738       -2.16967
C          4.49430       -0.64490       -3.78960
C          3.35690        0.15050       -3.76350
C          2.59730        0.34390       -2.61820
C          3.17820        0.69370       -5.09930
O          2.29440        1.44230       -5.48540
C          4.29990        0.17990       -5.86860
O          4.54020        0.42630       -7.03980
N          5.07490       -0.60470       -5.08950
H          1.06629        0.94897        1.18542
H          1.48298        1.82205       -0.39465
H          2.29330       -0.97527        0.55803
H          4.47200       -1.58730       -0.52200
H          5.94453       -3.27863       -2.70846
H          7.68613       -0.88151       -1.99116
H          8.12301       -2.65878       -2.13065
H          1.72520        0.97740       -2.67190
H          5.94430       -1.03510       -5.41740
