
  xtb     02032211353D
 xtb: 6.4.1 (23d549d)
 19 19  0     0  0            999 V2000
   -0.3853   -2.8753    0.5328 C   0  0  0  0  0  0  0  0  0  0  0  0
   -1.3156   -2.1666   -0.0936 C   0  0  0  0  0  0  0  0  0  0  0  0
   -1.4026   -0.7095   -0.1096 C   0  0  0  0  0  0  0  0  0  0  0  0
   -2.6644   -0.1156   -0.0134 C   0  0  0  0  0  0  0  0  0  0  0  0
   -2.8769    1.1821    0.0457 N   0  0  0  0  0  0  0  0  0  0  0  0
   -1.8249    1.9842    0.0002 C   0  0  0  0  0  0  0  0  0  0  0  0
   -0.5267    1.5245   -0.1285 C   0  0  0  0  0  0  0  0  0  0  0  0
   -0.2921    0.1501   -0.1915 C   0  0  0  0  0  0  0  0  0  0  0  0
    1.0444   -0.3851   -0.4222 C   0  0  0  0  0  0  0  0  0  0  0  0
    2.1871    0.1813   -0.0690 C   0  0  0  0  0  0  0  0  0  0  0  0
    2.3509    1.3085    0.6120 F   0  0  0  0  0  0  0  0  0  0  0  0
    3.3801   -0.3452   -0.3321 F   0  0  0  0  0  0  0  0  0  0  0  0
   -0.4047   -3.9517    0.5317 H   0  0  0  0  0  0  0  0  0  0  0  0
    0.4080   -2.4130    1.0962 H   0  0  0  0  0  0  0  0  0  0  0  0
   -2.1319   -2.6750   -0.5919 H   0  0  0  0  0  0  0  0  0  0  0  0
   -3.5505   -0.7363    0.0321 H   0  0  0  0  0  0  0  0  0  0  0  0
   -2.0393    3.0428    0.0533 H   0  0  0  0  0  0  0  0  0  0  0  0
    0.2885    2.2255   -0.2022 H   0  0  0  0  0  0  0  0  0  0  0  0
    1.1152   -1.3333   -0.9346 H   0  0  0  0  0  0  0  0  0  0  0  0
  1  2  2  0  0  0  0
  2  3  1  0  0  0  0
  3  4  4  0  0  0  0
  4  5  4  0  0  0  0
  5  6  4  0  0  0  0
  6  7  4  0  0  0  0
  3  8  4  0  0  0  0
  7  8  4  0  0  0  0
  8  9  1  0  0  0  0
  9 10  2  0  0  0  0
 10 11  1  0  0  0  0
 10 12  1  0  0  0  0
  1 13  1  0  0  0  0
  1 14  1  0  0  0  0
  2 15  1  0  0  0  0
  4 16  1  0  0  0  0
  6 17  1  0  0  0  0
  7 18  1  0  0  0  0
  9 19  1  0  0  0  0
M  END
