
 OpenBabel02012214023D

 31 32  0  0  0  0  0  0  0  0999 V2000
   -2.5812    0.0462    0.3078 C   0  0  0  0  0  0  0  0  0  0  0  0
   -1.1490   -0.2943    0.0840 C   0  0  0  0  0  0  0  0  0  0  0  0
   -0.5123   -1.5210    0.1183 C   0  0  0  0  0  0  0  0  0  0  0  0
    0.9025   -1.4351   -0.1470 C   0  0  0  0  0  0  0  0  0  0  0  0
    1.8978   -2.5917   -0.1573 C   0  0  0  0  0  0  0  0  0  0  0  0
    2.4996   -2.8321    1.2407 C   0  0  0  0  0  0  0  0  0  0  0  0
    1.9651   -4.0559    1.9698 C   0  0  0  0  0  0  0  0  0  0  0  0
    2.0381   -5.2799    1.0749 C   0  0  0  0  0  0  0  0  0  0  0  0
    1.1154   -5.0891   -0.1179 C   0  0  0  0  0  0  0  0  0  0  0  0
    1.4610   -3.8480   -0.9377 C   0  0  0  0  0  0  0  0  0  0  0  0
    1.2709   -0.1064   -0.3563 C   0  0  0  0  0  0  0  0  0  0  0  0
    2.6200    0.4865   -0.6144 C   0  0  0  0  0  0  0  0  0  0  0  0
   -0.0574    0.9648   -0.2777 S   0  0  0  0  0  0  0  0  0  0  0  0
   -3.1663   -0.8388    0.5741 H   0  0  0  0  0  0  0  0  0  0  0  0
   -3.0235    0.4865   -0.5935 H   0  0  0  0  0  0  0  0  0  0  0  0
   -2.6814    0.7722    1.1238 H   0  0  0  0  0  0  0  0  0  0  0  0
   -1.0372   -2.4468    0.3274 H   0  0  0  0  0  0  0  0  0  0  0  0
    2.7332   -2.2159   -0.7636 H   0  0  0  0  0  0  0  0  0  0  0  0
    2.3775   -1.9511    1.8837 H   0  0  0  0  0  0  0  0  0  0  0  0
    3.5834   -2.9638    1.1214 H   0  0  0  0  0  0  0  0  0  0  0  0
    0.9301   -3.8843    2.2892 H   0  0  0  0  0  0  0  0  0  0  0  0
    2.5564   -4.2251    2.8771 H   0  0  0  0  0  0  0  0  0  0  0  0
    1.7440   -6.1741    1.6359 H   0  0  0  0  0  0  0  0  0  0  0  0
    3.0708   -5.4401    0.7352 H   0  0  0  0  0  0  0  0  0  0  0  0
    0.0785   -5.0232    0.2299 H   0  0  0  0  0  0  0  0  0  0  0  0
    1.1735   -5.9740   -0.7637 H   0  0  0  0  0  0  0  0  0  0  0  0
    0.6380   -3.6271   -1.6284 H   0  0  0  0  0  0  0  0  0  0  0  0
    2.3059   -4.1326   -1.5819 H   0  0  0  0  0  0  0  0  0  0  0  0
    3.4190   -0.2608   -0.5809 H   0  0  0  0  0  0  0  0  0  0  0  0
    2.8586    1.2386    0.1427 H   0  0  0  0  0  0  0  0  0  0  0  0
    2.6483    0.9556   -1.6014 H   0  0  0  0  0  0  0  0  0  0  0  0
  1  2  1  0  0  0  0
  1 14  1  0  0  0  0
  1 15  1  0  0  0  0
  1 16  1  0  0  0  0
  2  3  2  0  0  0  0
  2 13  1  0  0  0  0
  3  4  1  0  0  0  0
  3 17  1  0  0  0  0
  4  5  1  0  0  0  0
  4 11  2  0  0  0  0
  5  6  1  0  0  0  0
  5 10  1  0  0  0  0
  5 18  1  0  0  0  0
  6  7  1  0  0  0  0
  6 19  1  0  0  0  0
  6 20  1  0  0  0  0
  7  8  1  0  0  0  0
  7 21  1  0  0  0  0
  7 22  1  0  0  0  0
  8  9  1  0  0  0  0
  8 23  1  0  0  0  0
  8 24  1  0  0  0  0
  9 10  1  0  0  0  0
  9 25  1  0  0  0  0
  9 26  1  0  0  0  0
 10 27  1  0  0  0  0
 10 28  1  0  0  0  0
 11 12  1  0  0  0  0
 11 13  1  0  0  0  0
 12 29  1  0  0  0  0
 12 30  1  0  0  0  0
 12 31  1  0  0  0  0
M  END
