
  xtb     02012214023D
 xtb: 6.4.1 (23d549d)
 31 32  0     0  0            999 V2000
   -0.2401    1.4566   -1.7542 c   0  0  0  0  0  0  0  0  0  0  0  0
   -0.0160    0.3423   -0.7952 c   0  0  0  0  0  0  0  0  0  0  0  0
    1.0593   -0.4671   -0.6687 c   0  0  0  0  0  0  0  0  0  0  0  0
    0.9650   -1.4522    0.3660 c   0  0  0  0  0  0  0  0  0  0  0  0
    2.1723   -2.3488    0.5369 c   0  0  0  0  0  0  0  0  0  0  0  0
    2.2302   -3.2905    1.7442 c   0  0  0  0  0  0  0  0  0  0  0  0
    1.3517   -4.5325    1.6112 c   0  0  0  0  0  0  0  0  0  0  0  0
    1.6555   -5.2839    0.3212 c   0  0  0  0  0  0  0  0  0  0  0  0
    1.4664   -4.3439   -0.8627 c   0  0  0  0  0  0  0  0  0  0  0  0
    2.4259   -3.1665   -0.7435 c   0  0  0  0  0  0  0  0  0  0  0  0
   -0.2114   -1.3472    1.0449 c   0  0  0  0  0  0  0  0  0  0  0  0
   -0.8169   -2.0618    2.2077 c   0  0  0  0  0  0  0  0  0  0  0  0
   -1.2134   -0.0724    0.3851 s   0  0  0  0  0  0  0  0  0  0  0  0
    0.6350    1.5816   -2.3879 h   0  0  0  0  0  0  0  0  0  0  0  0
   -0.4265    2.3895   -1.2226 h   0  0  0  0  0  0  0  0  0  0  0  0
   -1.1053    1.2543   -2.3855 h   0  0  0  0  0  0  0  0  0  0  0  0
    1.9328   -0.3606   -1.2891 h   0  0  0  0  0  0  0  0  0  0  0  0
    3.0173   -1.6526    0.6445 h   0  0  0  0  0  0  0  0  0  0  0  0
    1.9863   -2.7433    2.6562 h   0  0  0  0  0  0  0  0  0  0  0  0
    3.2686   -3.6219    1.8405 h   0  0  0  0  0  0  0  0  0  0  0  0
    0.3007   -4.2536    1.6014 h   0  0  0  0  0  0  0  0  0  0  0  0
    1.5193   -5.1817    2.4743 h   0  0  0  0  0  0  0  0  0  0  0  0
    0.9940   -6.1483    0.2306 h   0  0  0  0  0  0  0  0  0  0  0  0
    2.6853   -5.6495    0.3348 h   0  0  0  0  0  0  0  0  0  0  0  0
    0.4381   -3.9756   -0.8788 h   0  0  0  0  0  0  0  0  0  0  0  0
    1.6501   -4.8742   -1.7998 h   0  0  0  0  0  0  0  0  0  0  0  0
    2.3342   -2.5287   -1.6231 h   0  0  0  0  0  0  0  0  0  0  0  0
    3.4501   -3.5478   -0.7140 h   0  0  0  0  0  0  0  0  0  0  0  0
   -1.3953   -2.9266    1.8770 h   0  0  0  0  0  0  0  0  0  0  0  0
   -1.5041   -1.3899    2.7197 h   0  0  0  0  0  0  0  0  0  0  0  0
   -0.0682   -2.3922    2.9202 h   0  0  0  0  0  0  0  0  0  0  0  0
  1  2  1  0  0  0  0
  2  3  2  0  0  0  0
  3  4  4  0  0  0  0
  4  5  1  0  0  0  0
  5  6  1  0  0  0  0
  6  7  1  0  0  0  0
  7  8  1  0  0  0  0
  8  9  1  0  0  0  0
  5 10  1  0  0  0  0
  9 10  1  0  0  0  0
  4 11  2  0  0  0  0
 11 12  1  0  0  0  0
  2 13  1  0  0  0  0
 11 13  1  0  0  0  0
  1 14  1  0  0  0  0
  1 15  1  0  0  0  0
  1 16  1  0  0  0  0
  3 17  1  0  0  0  0
  5 18  1  0  0  0  0
  6 19  1  0  0  0  0
  6 20  1  0  0  0  0
  7 21  1  0  0  0  0
  7 22  1  0  0  0  0
  8 23  1  0  0  0  0
  8 24  1  0  0  0  0
  9 25  1  0  0  0  0
  9 26  1  0  0  0  0
 10 27  1  0  0  0  0
 10 28  1  0  0  0  0
 12 29  1  0  0  0  0
 12 30  1  0  0  0  0
 12 31  1  0  0  0  0
M  END
