54

C          3.18262        0.13019        2.30280
C          4.47015        0.88637        1.98452
C          5.54874       -0.06647        1.45880
C          5.10099       -0.76191        0.16607
C          6.19126       -1.72224       -0.32843
C          6.51020       -2.83380        0.68580
C          6.99570       -2.37280        2.05620
C          8.38290       -2.21570        2.23800
C          8.93050       -1.83830        3.47480
C         10.43120       -1.72700        3.59690
C          8.06830       -1.61540        4.57400
C          8.57590       -1.21730        5.94670
C          8.00350        0.13716        6.38839
C          8.38462        1.24410        5.39811
C          7.82633        2.59803        5.85126
C          6.29863        2.55336        5.96628
C          5.65864        2.19171        4.62901
C          6.68610       -1.78750        4.40190
C          6.13480       -2.15400        3.16360
C          4.63900       -2.32850        3.08240
H          2.41685        0.83885        2.68205
H          3.36954       -0.64168        3.08002
H          2.78852       -0.36274        1.38810
H          4.83225        1.38744        2.90851
H          4.25043        1.66200        1.21895
H          5.76134       -0.83742        2.23256
H          6.48073        0.50899        1.26284
H          4.89779        0.00397       -0.61418
H          4.16670       -1.33318        0.36098
H          7.12785       -1.14530       -0.49299
H          5.90093       -2.13572       -1.30691
H          7.28628       -3.47132        0.20879
H          5.61619       -3.47935        0.82287
H          9.05020       -2.39950        1.40460
H         10.94120       -1.97430        2.64180
H         10.79890       -2.44000        4.36450
H         10.73610       -0.70140        3.87050
H          9.68615       -1.23582        5.96775
H          8.23670       -1.96385        6.69879
H          8.42136        0.38365        7.38976
H          6.90113        0.09823        6.47484
H          7.98181        0.98970        4.39257
H          9.49284        1.31585        5.33188
H          8.11456        3.37534        5.10890
H          8.26160        2.86725        6.83885
H          5.92015        3.54688        6.29155
H          6.00120        1.79311        6.72124
H          5.92569        2.94394        3.85654
H          4.55409        2.16936        4.73857
H          6.00307        1.18899        4.29663
H          6.02750       -1.62560        5.24790
H          4.15420       -2.18530        4.07160
H          4.39130       -3.35060        2.72920
H          4.19180       -1.56920        2.41930
54

C          8.20146       -6.19094       -2.15041
C          7.17856       -5.97772       -1.03727
C          7.86209       -5.51040        0.25192
C          8.59304       -4.17655        0.04742
C          7.60066       -3.08277       -0.37007
C          6.51020       -2.83380        0.68580
C          6.99570       -2.37280        2.05620
C          8.38290       -2.21570        2.23800
C          8.93050       -1.83830        3.47480
C         10.43120       -1.72700        3.59690
C          8.06830       -1.61540        4.57400
C          8.57590       -1.21730        5.94670
C          8.00350        0.13716        6.38839
C          6.47327        0.08614        6.47211
C          5.90407        1.44486        6.89641
C          6.27099        2.53609        5.88464
C          5.71899        3.89170        6.31624
C          6.68610       -1.78750        4.40190
C          6.13480       -2.15400        3.16360
C          4.63900       -2.32850        3.08240
H          7.68496       -6.52933       -3.07299
H          8.94158       -6.96443       -1.85251
H          8.73593       -5.24174       -2.37025
H          6.64326       -6.93411       -0.85097
H          6.44215       -5.21364       -1.36870
H          8.59573       -6.28224        0.57488
H          7.09538       -5.39094        1.04945
H          9.36775       -4.29692       -0.74124
H          9.09015       -3.88073        0.99748
H          7.08969       -3.40182       -1.30508
H          8.15077       -2.15994       -0.61184
H          5.95692       -3.79283        0.78791
H          5.78007       -2.09137        0.29790
H          9.05020       -2.39950        1.40460
H         10.94120       -1.97430        2.64180
H         10.79890       -2.44000        4.36450
H         10.73610       -0.70140        3.87050
H          9.68615       -1.23582        5.96775
H          8.23670       -1.96385        6.69879
H          8.30262        0.90414        5.63980
H          8.40591        0.44120        7.37319
H          6.17312       -0.69273        7.20789
H          6.05699       -0.18320        5.47619
H          6.31862        1.71587        7.89295
H          4.79682        1.37488        6.97624
H          5.85284        2.27595        4.88784
H          7.37703        2.61214        5.79928
H          4.61173        3.85100        6.39506
H          5.99529        4.66232        5.56635
H          6.14450        4.18455        7.29998
H          6.02750       -1.62560        5.24790
H          4.15420       -2.18530        4.07160
H          4.39130       -3.35060        2.72920
H          4.19180       -1.56920        2.41930
54

C          4.34817       -0.41587       -2.72800
C          5.74229       -0.82723       -2.26105
C          6.03688       -0.27322       -0.86323
C          5.03737       -0.80490        0.17290
C          5.11961       -2.33512        0.25740
C          6.51020       -2.83380        0.68580
C          6.99570       -2.37280        2.05620
C          8.38290       -2.21570        2.23800
C          8.93050       -1.83830        3.47480
C         10.43120       -1.72700        3.59690
C          8.06830       -1.61540        4.57400
C          8.57590       -1.21730        5.94670
C          8.18386       -2.24925        7.01378
C          8.68782       -1.82619        8.39880
C          8.30985       -2.86720        9.45879
C          8.93555       -4.22967        9.14055
C         10.45875       -4.14085        9.11539
C          6.68610       -1.78750        4.40190
C          6.13480       -2.15400        3.16360
C          4.63900       -2.32850        3.08240
H          4.15687       -0.82691       -3.74136
H          4.26598        0.69145       -2.77148
H          3.57629       -0.81080       -2.03287
H          6.49371       -0.43942       -2.98279
H          5.80158       -1.93726       -2.24393
H          5.97580        0.83750       -0.89200
H          7.06769       -0.56631       -0.56374
H          4.00749       -0.50307       -0.11847
H          5.27226       -0.36717        1.16811
H          4.91076       -2.76034       -0.74893
H          4.32941       -2.70946        0.92683
H          7.21674       -2.48459       -0.09850
H          6.53248       -3.94434        0.65468
H          9.05020       -2.39950        1.40460
H         10.94120       -1.97430        2.64180
H         10.79890       -2.44000        4.36450
H         10.73610       -0.70140        3.87050
H          8.23372       -0.19206        6.20213
H          9.68795       -1.18172        5.93532
H          8.64248       -3.22571        6.74119
H          7.08656       -2.38406        7.05796
H          8.24307       -0.84148        8.66462
H          9.79532       -1.72356        8.37412
H          7.20219       -2.97084        9.48572
H          8.66183       -2.52520       10.45700
H          8.57727       -4.58180        8.14870
H          8.63419       -4.97063        9.91292
H         10.79117       -3.41785        8.34036
H         10.88623       -5.13803        8.87997
H         10.84131       -3.81526       10.10645
H          6.02750       -1.62560        5.24790
H          4.15420       -2.18530        4.07160
H          4.39130       -3.35060        2.72920
H          4.19180       -1.56920        2.41930
54

C          7.31019       -7.57593        3.03932
C          6.74113       -6.24217        3.51693
C          7.13473       -5.10722        2.56582
C          6.59397       -5.34899        1.15005
C          7.01696       -4.20771        0.21515
C          6.51020       -2.83380        0.68580
C          6.99570       -2.37280        2.05620
C          8.38290       -2.21570        2.23800
C          8.93050       -1.83830        3.47480
C         10.43120       -1.72700        3.59690
C          8.06830       -1.61540        4.57400
C          8.57590       -1.21730        5.94670
C          8.18386       -2.24925        7.01378
C          8.68782       -1.82619        8.39880
C         10.21356       -1.67707        8.40256
C         10.72399       -1.27117        9.78957
C         10.10956        0.05314       10.23379
C          6.68610       -1.78750        4.40190
C          6.13480       -2.15400        3.16360
C          4.63900       -2.32850        3.08240
H          7.01365       -8.38220        3.74248
H          8.41967       -7.53020        2.99738
H          6.91798       -7.82326        2.02938
H          7.13050       -6.02781        4.53594
H          5.63336       -6.32212        3.56616
H          8.24443       -5.03557        2.52478
H          6.72925       -4.14695        2.95520
H          5.48414       -5.41038        1.18395
H          6.99557       -6.31130        0.76286
H          6.58471       -4.39267       -0.79286
H          8.11148       -4.21781        0.09434
H          5.40023       -2.89892        0.68442
H          6.77902       -2.06112       -0.06618
H          9.05020       -2.39950        1.40460
H         10.94120       -1.97430        2.64180
H         10.79890       -2.44000        4.36450
H         10.73610       -0.70140        3.87050
H          8.23372       -0.19206        6.20213
H          9.68795       -1.18172        5.93532
H          8.64248       -3.22571        6.74119
H          7.08656       -2.38406        7.05796
H          8.38368       -2.59077        9.14780
H          8.23031       -0.85101        8.67704
H         10.50295       -0.89688        7.66368
H         10.68152       -2.64175        8.10646
H         11.83050       -1.16586        9.76339
H         10.45719       -2.05494       10.53181
H         10.37276        0.86088        9.51813
H         10.49733        0.32555       11.23777
H          9.00363       -0.03662       10.29242
H          6.02750       -1.62560        5.24790
H          4.15420       -2.18530        4.07160
H          4.39130       -3.35060        2.72920
H          4.19180       -1.56920        2.41930
54

C          2.21292       -4.39996       -0.43463
C          3.61414       -4.90597       -0.10087
C          4.63847       -4.39112       -1.11738
C          4.70059       -2.85770       -1.12347
C          5.11961       -2.33512        0.25740
C          6.51020       -2.83380        0.68580
C          6.99570       -2.37280        2.05620
C          8.38290       -2.21570        2.23800
C          8.93050       -1.83830        3.47480
C         10.43120       -1.72700        3.59690
C          8.06830       -1.61540        4.57400
C          8.57590       -1.21730        5.94670
C          9.33024        0.11924        5.90298
C          9.85275        0.50112        7.29308
C         10.59020        1.84440        7.24913
C          9.65842        2.96948        6.78541
C          8.47796        3.13145        7.73879
C          6.68610       -1.78750        4.40190
C          6.13480       -2.15400        3.16360
C          4.63900       -2.32850        3.08240
H          1.48837       -4.78515        0.31309
H          1.90488       -4.75124       -1.44285
H          2.18864       -3.28913       -0.41342
H          3.60746       -6.01766       -0.10731
H          3.88873       -4.55525        0.91774
H          4.35475       -4.74840       -2.13232
H          5.64219       -4.79869       -0.86320
H          3.70116       -2.44850       -1.38871
H          5.43955       -2.52308       -1.88452
H          4.38974       -2.69896        1.01375
H          5.06101       -1.23551        0.26777
H          7.21674       -2.48459       -0.09850
H          6.53248       -3.94434        0.65468
H          9.05020       -2.39950        1.40460
H         10.94120       -1.97430        2.64180
H         10.79890       -2.44000        4.36450
H         10.73610       -0.70140        3.87050
H          9.18685       -2.03510        6.38418
H          7.71282       -1.07047        6.63342
H          8.62771        0.90592        5.54843
H         10.18310        0.07611        5.19944
H         10.54197       -0.29362        7.65564
H          8.99772        0.58303        8.00012
H         11.44654        1.76441        6.54296
H         10.98243        2.08580        8.26163
H          9.27301        2.73882        5.76836
H         10.21919        3.92884        6.74586
H          7.88813        2.19142        7.78709
H          7.81812        3.94869        7.37924
H          8.83909        3.38861        8.75762
H          6.02750       -1.62560        5.24790
H          4.15420       -2.18530        4.07160
H          4.39130       -3.35060        2.72920
H          4.19180       -1.56920        2.41930
54

C          4.34817       -0.41587       -2.72800
C          5.74229       -0.82723       -2.26105
C          6.03688       -0.27322       -0.86323
C          5.03737       -0.80490        0.17290
C          5.11961       -2.33512        0.25740
C          6.51020       -2.83380        0.68580
C          6.99570       -2.37280        2.05620
C          8.38290       -2.21570        2.23800
C          8.93050       -1.83830        3.47480
C         10.43120       -1.72700        3.59690
C          8.06830       -1.61540        4.57400
C          8.57590       -1.21730        5.94670
C          8.00350        0.13716        6.38839
C          8.53797        0.53569        7.76924
C          7.95099        1.87998        8.21475
C          6.42360        1.80682        8.31877
C          5.99351        0.76215        9.34462
C          6.68610       -1.78750        4.40190
C          6.13480       -2.15400        3.16360
C          4.63900       -2.32850        3.08240
H          4.15687       -0.82691       -3.74136
H          4.26598        0.69145       -2.77148
H          3.57629       -0.81080       -2.03287
H          6.49371       -0.43942       -2.98279
H          5.80158       -1.93726       -2.24393
H          5.97580        0.83750       -0.89200
H          7.06769       -0.56631       -0.56374
H          4.00749       -0.50307       -0.11847
H          5.27226       -0.36717        1.16811
H          4.91076       -2.76034       -0.74893
H          4.32941       -2.70946        0.92683
H          7.21674       -2.48459       -0.09850
H          6.53248       -3.94434        0.65468
H          9.05020       -2.39950        1.40460
H         10.94120       -1.97430        2.64180
H         10.79890       -2.44000        4.36450
H         10.73610       -0.70140        3.87050
H          9.68615       -1.23582        5.96775
H          8.23670       -1.96385        6.69879
H          6.89536        0.04931        6.43745
H          8.25441        0.93466        5.66364
H          9.64752        0.60685        7.72525
H          8.25864       -0.24308        8.51300
H          8.22996        2.66073        7.47245
H          8.37387        2.15983        9.20476
H          5.99498        1.53921        7.32842
H          6.02061        2.79630        8.62687
H          6.36914       -0.24216        9.05455
H          4.88517        0.72686        9.39817
H          6.38959        1.02395       10.34918
H          6.02750       -1.62560        5.24790
H          4.15420       -2.18530        4.07160
H          4.39130       -3.35060        2.72920
H          4.19180       -1.56920        2.41930
54

C          7.31019       -7.57593        3.03932
C          6.74113       -6.24217        3.51693
C          7.13473       -5.10722        2.56582
C          6.59397       -5.34899        1.15005
C          7.01696       -4.20771        0.21515
C          6.51020       -2.83380        0.68580
C          6.99570       -2.37280        2.05620
C          8.38290       -2.21570        2.23800
C          8.93050       -1.83830        3.47480
C         10.43120       -1.72700        3.59690
C          8.06830       -1.61540        4.57400
C          8.57590       -1.21730        5.94670
C          8.00350        0.13716        6.38839
C          8.38462        1.24410        5.39811
C          9.90787        1.37308        5.28308
C         10.29403        2.49018        4.30736
C          9.72688        2.22304        2.91609
C          6.68610       -1.78750        4.40190
C          6.13480       -2.15400        3.16360
C          4.63900       -2.32850        3.08240
H          7.01365       -8.38220        3.74248
H          8.41967       -7.53020        2.99738
H          6.91798       -7.82326        2.02938
H          7.13050       -6.02781        4.53594
H          5.63336       -6.32212        3.56616
H          8.24443       -5.03557        2.52478
H          6.72925       -4.14695        2.95520
H          5.48414       -5.41038        1.18395
H          6.99557       -6.31130        0.76286
H          6.58471       -4.39267       -0.79286
H          8.11148       -4.21781        0.09434
H          5.40023       -2.89892        0.68442
H          6.77902       -2.06112       -0.06618
H          9.05020       -2.39950        1.40460
H         10.94120       -1.97430        2.64180
H         10.79890       -2.44000        4.36450
H         10.73610       -0.70140        3.87050
H          9.68615       -1.23582        5.96775
H          8.23670       -1.96385        6.69879
H          8.42136        0.38365        7.38976
H          6.90113        0.09823        6.47484
H          7.95139        2.20895        5.74376
H          7.96718        1.00334        4.39538
H         10.32644        0.40848        4.91876
H         10.33829        1.59466        6.28454
H         11.40161        2.55929        4.23939
H          9.89726        3.46218        4.67368
H         10.11887        1.26362        2.51641
H         10.02311        3.04339        2.22921
H          8.61748        2.17597        2.95568
H          6.02750       -1.62560        5.24790
H          4.15420       -2.18530        4.07160
H          4.39130       -3.35060        2.72920
H          4.19180       -1.56920        2.41930
54

C          4.48473        1.69555       -1.40314
C          3.52005        1.15622       -0.34987
C          3.62541       -0.36846       -0.24084
C          5.03737       -0.80490        0.17290
C          5.11961       -2.33512        0.25740
C          6.51020       -2.83380        0.68580
C          6.99570       -2.37280        2.05620
C          8.38290       -2.21570        2.23800
C          8.93050       -1.83830        3.47480
C         10.43120       -1.72700        3.59690
C          8.06830       -1.61540        4.57400
C          8.57590       -1.21730        5.94670
C          8.18386       -2.24925        7.01378
C          8.68782       -1.82619        8.39880
C         10.21356       -1.67707        8.40256
C         10.72399       -1.27117        9.78957
C         10.36902       -2.32526       10.83434
C          6.68610       -1.78750        4.40190
C          6.13480       -2.15400        3.16360
C          4.63900       -2.32850        3.08240
H          4.39093        2.79998       -1.46543
H          4.25177        1.26160       -2.39924
H          5.53243        1.44267       -1.13230
H          2.48270        1.43997       -0.63152
H          3.76446        1.61943        0.63077
H          3.37814       -0.82146       -1.22669
H          2.89242       -0.73244        0.51309
H          5.28520       -0.36362        1.16310
H          5.77046       -0.43684       -0.57833
H          4.91076       -2.76034       -0.74893
H          4.32941       -2.70946        0.92683
H          7.21674       -2.48459       -0.09850
H          6.53248       -3.94434        0.65468
H          9.05020       -2.39950        1.40460
H         10.94120       -1.97430        2.64180
H         10.79890       -2.44000        4.36450
H         10.73610       -0.70140        3.87050
H          8.23372       -0.19206        6.20213
H          9.68795       -1.18172        5.93532
H          8.64248       -3.22571        6.74119
H          7.08656       -2.38406        7.05796
H          8.38368       -2.59077        9.14780
H          8.23031       -0.85101        8.67704
H         10.50295       -0.89688        7.66368
H         10.68152       -2.64175        8.10646
H         10.26839       -0.30103       10.08517
H         11.82935       -1.15338        9.76300
H          9.26736       -2.45392       10.89499
H         10.74632       -2.00624       11.82852
H         10.83641       -3.29870       10.57257
H          6.02750       -1.62560        5.24790
H          4.15420       -2.18530        4.07160
H          4.39130       -3.35060        2.72920
H          4.19180       -1.56920        2.41930
54

C          1.77522       -6.16277       -2.03440
C          3.08172       -5.37506       -2.09294
C          3.50381       -4.91060       -0.69517
C          4.80747       -4.10222       -0.74268
C          5.21607       -3.66503        0.67061
C          6.51020       -2.83380        0.68580
C          6.99570       -2.37280        2.05620
C          8.38290       -2.21570        2.23800
C          8.93050       -1.83830        3.47480
C         10.43120       -1.72700        3.59690
C          8.06830       -1.61540        4.57400
C          8.57590       -1.21730        5.94670
C          8.00350        0.13716        6.38839
C          8.38462        1.24410        5.39811
C          9.90787        1.37308        5.28308
C         10.53736        1.69857        6.64208
C          9.98439        3.00541        7.20336
C          6.68610       -1.78750        4.40190
C          6.13480       -2.15400        3.16360
C          4.63900       -2.32850        3.08240
H          1.48869       -6.48808       -3.05642
H          0.96062       -5.53042       -1.62045
H          1.89635       -7.06398       -1.39557
H          2.94150       -4.49206       -2.75369
H          3.87292       -6.02479       -2.52631
H          3.65096       -5.80157       -0.04496
H          2.69631       -4.28069       -0.26005
H          4.66236       -3.20440       -1.38262
H          5.61337       -4.73044       -1.18211
H          5.39826       -4.57288        1.28684
H          4.38099       -3.12593        1.14462
H          6.31468       -1.94933        0.04101
H          7.32516       -3.40612        0.19279
H          9.05020       -2.39950        1.40460
H         10.94120       -1.97430        2.64180
H         10.79890       -2.44000        4.36450
H         10.73610       -0.70140        3.87050
H          9.68615       -1.23582        5.96775
H          8.23670       -1.96385        6.69879
H          8.42136        0.38365        7.38976
H          6.90113        0.09823        6.47484
H          7.95139        2.20895        5.74376
H          7.96718        1.00334        4.39538
H         10.14903        2.18738        4.56395
H         10.33324        0.41940        4.89989
H         11.63963        1.79080        6.52975
H         10.31891        0.88023        7.36250
H         10.20183        3.84633        6.51094
H         10.45791        3.21941        8.18445
H          8.88563        2.92698        7.34875
H          6.02750       -1.62560        5.24790
H          4.15420       -2.18530        4.07160
H          4.39130       -3.35060        2.72920
H          4.19180       -1.56920        2.41930
54

C          8.38888       -6.35154       -4.31397
C          7.39452       -5.43997       -3.59902
C          7.91880       -5.03511       -2.21741
C          6.91993       -4.13222       -1.48098
C          7.47691       -3.72787       -0.10922
C          6.51020       -2.83380        0.68580
C          6.99570       -2.37280        2.05620
C          8.38290       -2.21570        2.23800
C          8.93050       -1.83830        3.47480
C         10.43120       -1.72700        3.59690
C          8.06830       -1.61540        4.57400
C          8.57590       -1.21730        5.94670
C          8.00350        0.13716        6.38839
C          8.53797        0.53569        7.76924
C          8.16881       -0.51586        8.82191
C          6.64892       -0.68744        8.91977
C          5.97187        0.62773        9.29472
C          6.68610       -1.78750        4.40190
C          6.13480       -2.15400        3.16360
C          4.63900       -2.32850        3.08240
H          7.98880       -6.63237       -5.31071
H          8.55753       -7.27797       -3.72398
H          9.35922       -5.82856       -4.45508
H          6.42723       -5.97683       -3.48913
H          7.23161       -4.53137       -4.21860
H          8.88145       -4.49036       -2.33909
H          8.10115       -5.95132       -1.61286
H          5.95933       -4.67623       -1.34699
H          6.73409       -3.21867       -2.08771
H          8.41460       -3.14913       -0.26072
H          7.75328       -4.63144        0.45635
H          5.57225       -3.42010        0.79880
H          6.24877       -1.93924        0.08068
H          9.05020       -2.39950        1.40460
H         10.94120       -1.97430        2.64180
H         10.79890       -2.44000        4.36450
H         10.73610       -0.70140        3.87050
H          9.68615       -1.23582        5.96775
H          8.23670       -1.96385        6.69879
H          6.89536        0.04931        6.43745
H          8.25441        0.93466        5.66364
H          8.10896        1.52125        8.05685
H          9.64585        0.62697        7.72497
H          8.56475       -0.19305        9.81055
H          8.63209       -1.49030        8.55153
H          6.40896       -1.45079        9.69168
H          6.24614       -1.02975        7.94151
H          6.34354        0.98746       10.27775
H          4.87420        0.47569        9.36212
H          6.17687        1.39959        8.52222
H          6.02750       -1.62560        5.24790
H          4.15420       -2.18530        4.07160
H          4.39130       -3.35060        2.72920
H          4.19180       -1.56920        2.41930
