
 OpenBabel02012213453D

 15 15  0  0  0  0  0  0  0  0999 V2000
   -0.6681    2.2055   -0.0232 C   0  0  0  0  0  0  0  0  0  0  0  0
   -0.2491    0.7671   -0.0158 C   0  0  0  0  0  0  0  0  0  0  0  0
   -1.0503   -0.3844   -0.0052 C   0  0  0  0  0  0  0  0  0  0  0  0
   -2.5513   -0.4230   -0.0010 C   0  0  0  0  0  0  0  0  0  0  0  0
   -0.2962   -1.5695   -0.0002 C   0  0  0  0  0  0  0  0  0  0  0  0
    1.0755   -1.3633   -0.0067 C   0  0  0  0  0  0  0  0  0  0  0  0
    1.3636    0.2900   -0.0198 S   0  0  0  0  0  0  0  0  0  0  0  0
   -1.7649    2.3365   -0.0125 H   0  0  0  0  0  0  0  0  0  0  0  0
   -0.2682    2.6968   -0.9343 H   0  0  0  0  0  0  0  0  0  0  0  0
   -0.2498    2.7116    0.8718 H   0  0  0  0  0  0  0  0  0  0  0  0
   -3.0116    0.5811   -0.0059 H   0  0  0  0  0  0  0  0  0  0  0  0
   -2.9033   -0.9586    0.9055 H   0  0  0  0  0  0  0  0  0  0  0  0
   -2.9066   -0.9681   -0.9006 H   0  0  0  0  0  0  0  0  0  0  0  0
   -0.7395   -2.5570    0.0084 H   0  0  0  0  0  0  0  0  0  0  0  0
    1.8297   -2.1384   -0.0043 H   0  0  0  0  0  0  0  0  0  0  0  0
  1  2  1  0  0  0  0
  1  8  1  0  0  0  0
  1  9  1  0  0  0  0
  1 10  1  0  0  0  0
  2  3  2  0  0  0  0
  2  7  1  0  0  0  0
  3  4  1  0  0  0  0
  3  5  1  0  0  0  0
  4 11  1  0  0  0  0
  4 12  1  0  0  0  0
  4 13  1  0  0  0  0
  5  6  2  0  0  0  0
  5 14  1  0  0  0  0
  6  7  1  0  0  0  0
  6 15  1  0  0  0  0
M  END
