
  xtb     02012213453D
 xtb: 6.4.1 (23d549d)
 15 15  0     0  0            999 V2000
   -0.6602    2.1780   -0.0233 c   0  0  0  0  0  0  0  0  0  0  0  0
   -0.2830    0.7376   -0.0150 c   0  0  0  0  0  0  0  0  0  0  0  0
   -1.0646   -0.3781   -0.0058 c   0  0  0  0  0  0  0  0  0  0  0  0
   -2.5593   -0.4154   -0.0011 c   0  0  0  0  0  0  0  0  0  0  0  0
   -0.2948   -1.5763   -0.0008 c   0  0  0  0  0  0  0  0  0  0  0  0
    1.0392   -1.3571   -0.0063 c   0  0  0  0  0  0  0  0  0  0  0  0
    1.4088    0.3232   -0.0178 s   0  0  0  0  0  0  0  0  0  0  0  0
   -1.7402    2.2977   -0.0127 h   0  0  0  0  0  0  0  0  0  0  0  0
   -0.2653    2.6695   -0.9125 h   0  0  0  0  0  0  0  0  0  0  0  0
   -0.2463    2.6844    0.8487 h   0  0  0  0  0  0  0  0  0  0  0  0
   -2.9872    0.5827   -0.0050 h   0  0  0  0  0  0  0  0  0  0  0  0
   -2.9158   -0.9419    0.8839 h   0  0  0  0  0  0  0  0  0  0  0  0
   -2.9211   -0.9508   -0.8786 h   0  0  0  0  0  0  0  0  0  0  0  0
   -0.7386   -2.5563    0.0067 h   0  0  0  0  0  0  0  0  0  0  0  0
    1.8384   -2.0711   -0.0044 h   0  0  0  0  0  0  0  0  0  0  0  0
  1  2  1  0  0  0  0
  2  3  2  0  0  0  0
  3  4  1  0  0  0  0
  3  5  4  0  0  0  0
  5  6  2  0  0  0  0
  2  7  1  0  0  0  0
  6  7  1  0  0  0  0
  1  8  1  0  0  0  0
  1  9  1  0  0  0  0
  1 10  1  0  0  0  0
  4 11  1  0  0  0  0
  4 12  1  0  0  0  0
  4 13  1  0  0  0  0
  5 14  1  0  0  0  0
  6 15  1  0  0  0  0
M  END
