
 OpenBabel02032211203D

 25 25  0  0  0  0  0  0  0  0999 V2000
    1.1248   -0.3138    0.2994 C   0  0  0  0  0  0  0  0  0  0  0  0
    2.3857    0.0957    0.1073 C   0  0  0  0  0  0  0  0  0  0  0  0
    3.0936    1.0759    0.9449 C   0  0  0  0  0  0  0  0  0  0  0  0
    2.8108    1.2328    2.3005 C   0  0  0  0  0  0  0  0  0  0  0  0
    3.5372    2.1442    3.0809 C   0  0  0  0  0  0  0  0  0  0  0  0
    3.1104    2.2628    4.5014 C   0  0  0  0  0  0  0  0  0  0  0  0
    2.6452    1.3329    5.1363 O   0  0  0  0  0  0  0  0  0  0  0  0
    3.2418    3.5116    4.9983 O   0  0  0  0  0  0  0  0  0  0  0  0
    4.6289    2.8714    2.5406 C   0  0  0  0  0  0  0  0  0  0  0  0
    5.3302    3.7975    3.3620 N   0  0  0  0  0  0  0  0  0  0  0  0
    4.8774    2.7777    1.1477 C   0  0  0  0  0  0  0  0  0  0  0  0
    5.9506    3.4870    0.4074 C   0  0  0  0  0  0  0  0  0  0  0  0
    6.3947    4.7392    0.5789 C   0  0  0  0  0  0  0  0  0  0  0  0
    4.1215    1.8519    0.3917 C   0  0  0  0  0  0  0  0  0  0  0  0
    4.3951    1.7039   -0.9192 F   0  0  0  0  0  0  0  0  0  0  0  0
    0.6784   -1.0430   -0.3704 H   0  0  0  0  0  0  0  0  0  0  0  0
    0.4966    0.0599    1.1013 H   0  0  0  0  0  0  0  0  0  0  0  0
    2.9468   -0.3039   -0.7364 H   0  0  0  0  0  0  0  0  0  0  0  0
    2.0247    0.6445    2.7713 H   0  0  0  0  0  0  0  0  0  0  0  0
    3.6058    4.1447    4.3382 H   0  0  0  0  0  0  0  0  0  0  0  0
    5.4847    3.4373    4.3088 H   0  0  0  0  0  0  0  0  0  0  0  0
    6.2395    4.0325    2.9619 H   0  0  0  0  0  0  0  0  0  0  0  0
    6.3831    2.9152   -0.4156 H   0  0  0  0  0  0  0  0  0  0  0  0
    5.9988    5.4205    1.3232 H   0  0  0  0  0  0  0  0  0  0  0  0
    7.1761    5.1265   -0.0713 H   0  0  0  0  0  0  0  0  0  0  0  0
  1  2  2  0  0  0  0
  1 16  1  0  0  0  0
  1 17  1  0  0  0  0
  2  3  1  0  0  0  0
  2 18  1  0  0  0  0
  3  4  1  0  0  0  0
  3 14  2  0  0  0  0
  4  5  2  0  0  0  0
  4 19  1  0  0  0  0
  5  6  1  0  0  0  0
  5  9  1  0  0  0  0
  6  7  2  0  0  0  0
  6  8  1  0  0  0  0
  8 20  1  0  0  0  0
  9 10  1  0  0  0  0
  9 11  2  0  0  0  0
 10 21  1  0  0  0  0
 10 22  1  0  0  0  0
 11 12  1  0  0  0  0
 11 14  1  0  0  0  0
 12 13  2  0  0  0  0
 12 23  1  0  0  0  0
 13 24  1  0  0  0  0
 13 25  1  0  0  0  0
 14 15  1  0  0  0  0
M  END
