
  xtb     02012214063D
 xtb: 6.4.1 (23d549d)
 15 15  0     0  0            999 V2000
    2.4289   -0.6907    0.0304 c   0  0  0  0  0  0  0  0  0  0  0  0
    1.0869   -0.0502    0.0225 c   0  0  0  0  0  0  0  0  0  0  0  0
    0.7037    1.2557    0.0132 c   0  0  0  0  0  0  0  0  0  0  0  0
   -0.7153    1.2558    0.0091 c   0  0  0  0  0  0  0  0  0  0  0  0
   -1.0988   -0.0500    0.0162 c   0  0  0  0  0  0  0  0  0  0  0  0
   -2.4409   -0.6901    0.0163 c   0  0  0  0  0  0  0  0  0  0  0  0
   -0.0060   -0.8488    0.0243 o   0  0  0  0  0  0  0  0  0  0  0  0
    3.1987    0.0748    0.0276 h   0  0  0  0  0  0  0  0  0  0  0  0
    2.5535   -1.3257   -0.8462 h   0  0  0  0  0  0  0  0  0  0  0  0
    2.5486   -1.3144    0.9157 h   0  0  0  0  0  0  0  0  0  0  0  0
    1.3457    2.1129    0.0096 h   0  0  0  0  0  0  0  0  0  0  0  0
   -1.3570    2.1132    0.0018 h   0  0  0  0  0  0  0  0  0  0  0  0
   -3.2106    0.0754    0.0096 h   0  0  0  0  0  0  0  0  0  0  0  0
   -2.5657   -1.3143    0.9007 h   0  0  0  0  0  0  0  0  0  0  0  0
   -2.5608   -1.3248   -0.8612 h   0  0  0  0  0  0  0  0  0  0  0  0
  1  2  1  0  0  0  0
  2  3  2  0  0  0  0
  3  4  4  0  0  0  0
  4  5  2  0  0  0  0
  5  6  1  0  0  0  0
  2  7  1  0  0  0  0
  5  7  1  0  0  0  0
  1  8  1  0  0  0  0
  1  9  1  0  0  0  0
  1 10  1  0  0  0  0
  3 11  1  0  0  0  0
  4 12  1  0  0  0  0
  6 13  1  0  0  0  0
  6 14  1  0  0  0  0
  6 15  1  0  0  0  0
M  END
