20

C          0.97910       -0.05060       -0.07430
C          2.47420        0.00740       -0.06710
C          3.15910        1.24490       -0.06510
C          4.56740        1.27070       -0.05810
C          5.33250        2.56080       -0.05560
C          5.21950        0.03800       -0.05370
N          6.54960       -0.18220       -0.04690
C          6.65930       -1.53500       -0.04500
C          5.39580       -2.10880       -0.05060
N          4.51760       -1.09990       -0.05590
N          3.18860       -1.15500       -0.06240
H          0.53240        0.96640       -0.07750
H          0.62570       -0.59020        0.82910
H          0.63440       -0.59220       -0.97970
H          2.60120        2.17350       -0.06870
H          4.64780        3.43540       -0.06010
H          5.97800        2.61400       -0.95730
H          5.96870        2.61600        0.85250
H          7.59980       -2.06910       -0.03990
H          5.14710       -3.16200       -0.05070
