
  xtb     02012214133D
 xtb: 6.4.1 (23d549d)
 20 21  0     0  0            999 V2000
    1.0276   -0.0817   -0.0740 c   0  0  0  0  0  0  0  0  0  0  0  0
    2.5211   -0.0009   -0.0668 c   0  0  0  0  0  0  0  0  0  0  0  0
    3.1857    1.2484   -0.0648 c   0  0  0  0  0  0  0  0  0  0  0  0
    4.5567    1.3130   -0.0582 c   0  0  0  0  0  0  0  0  0  0  0  0
    5.3310    2.5852   -0.0557 c   0  0  0  0  0  0  0  0  0  0  0  0
    5.2405    0.0827   -0.0536 c   0  0  0  0  0  0  0  0  0  0  0  0
    6.5322   -0.2014   -0.0470 n   0  0  0  0  0  0  0  0  0  0  0  0
    6.6076   -1.5432   -0.0453 c   0  0  0  0  0  0  0  0  0  0  0  0
    5.3559   -2.1183   -0.0508 c   0  0  0  0  0  0  0  0  0  0  0  0
    4.4832   -1.0851   -0.0561 n   0  0  0  0  0  0  0  0  0  0  0  0
    3.1611   -1.1404   -0.0625 n   0  0  0  0  0  0  0  0  0  0  0  0
    0.5865    0.9107   -0.0773 h   0  0  0  0  0  0  0  0  0  0  0  0
    0.6819   -0.6258    0.8025 h   0  0  0  0  0  0  0  0  0  0  0  0
    0.6905   -0.6277   -0.9526 h   0  0  0  0  0  0  0  0  0  0  0  0
    2.5993    2.1544   -0.0686 h   0  0  0  0  0  0  0  0  0  0  0  0
    4.6684    3.4467   -0.0600 h   0  0  0  0  0  0  0  0  0  0  0  0
    5.9813    2.6187   -0.9277 h   0  0  0  0  0  0  0  0  0  0  0  0
    5.9724    2.6207    0.8228 h   0  0  0  0  0  0  0  0  0  0  0  0
    7.5601   -2.0358   -0.0401 h   0  0  0  0  0  0  0  0  0  0  0  0
    5.0346   -3.1380   -0.0513 h   0  0  0  0  0  0  0  0  0  0  0  0
  1  2  1  0  0  0  0
  2  3  4  0  0  0  0
  3  4  2  0  0  0  0
  4  5  1  0  0  0  0
  4  6  4  0  0  0  0
  6  7  4  0  0  0  0
  7  8  4  0  0  0  0
  8  9  4  0  0  0  0
  6 10  1  0  0  0  0
  9 10  4  0  0  0  0
  2 11  2  0  0  0  0
 10 11  1  0  0  0  0
  1 12  1  0  0  0  0
  1 13  1  0  0  0  0
  1 14  1  0  0  0  0
  3 15  1  0  0  0  0
  5 16  1  0  0  0  0
  5 17  1  0  0  0  0
  5 18  1  0  0  0  0
  8 19  1  0  0  0  0
  9 20  1  0  0  0  0
M  END
