23

C          2.65110       -0.30812        1.25507
C          2.38180        0.06330       -0.00320
C          3.08980       -0.43560       -1.19220
C          2.77200        0.00200       -2.48590
C          3.45590       -0.49600       -3.60100
C          3.09700       -0.05880       -4.98840
C          4.48090       -1.42550       -3.40270
F          5.12500       -1.91200       -4.47710
C          4.85310       -1.85510       -2.12140
C          5.91450       -2.86530       -1.99310
C          5.75683       -4.19181       -1.96416
F          4.53721       -4.76177       -2.04828
F          6.84692       -4.97791       -1.82963
C          4.14080       -1.35290       -1.02170
H          2.09187        0.11565        2.08355
H          3.43239       -1.01848        1.50396
H          1.60446        0.80393       -0.18022
H          1.98420        0.73770       -2.63260
H          2.29280        0.68440       -4.97960
H          2.75370       -0.91630       -5.57610
H          3.96420        0.39280       -5.48020
H          6.92429       -2.47651       -1.88635
H          4.38560       -1.69260       -0.01690
23

C          1.28445       -0.49783        0.52089
C          2.38180        0.06330       -0.00320
C          3.08980       -0.43560       -1.19220
C          2.77200        0.00200       -2.48590
C          3.45590       -0.49600       -3.60100
C          3.09700       -0.05880       -4.98840
C          4.48090       -1.42550       -3.40270
F          5.12500       -1.91200       -4.47710
C          4.85310       -1.85510       -2.12140
C          5.91450       -2.86530       -1.99310
C          5.75683       -4.19181       -1.96416
F          4.53721       -4.76177       -2.04828
F          6.84692       -4.97791       -1.82963
C          4.14080       -1.35290       -1.02170
H          0.82521       -0.07777        1.41046
H          0.82241       -1.38662        0.10429
H          2.81172        0.93680        0.48290
H          1.98420        0.73770       -2.63260
H          2.29280        0.68440       -4.97960
H          2.75370       -0.91630       -5.57610
H          3.96420        0.39280       -5.48020
H          6.92429       -2.47651       -1.88635
H          4.38560       -1.69260       -0.01690
23

C          1.10713        0.47419        0.00744
C          2.38180        0.06330       -0.00320
C          3.08980       -0.43560       -1.19220
C          2.77200        0.00200       -2.48590
C          3.45590       -0.49600       -3.60100
C          3.09700       -0.05880       -4.98840
C          4.48090       -1.42550       -3.40270
F          5.12500       -1.91200       -4.47710
C          4.85310       -1.85510       -2.12140
C          5.91450       -2.86530       -1.99310
C          7.22519       -2.63700       -1.86939
F          7.72763       -1.38528       -1.85641
F          8.06674       -3.68904       -1.77270
C          4.14080       -1.35290       -1.02170
H          0.64934        0.81756        0.93006
H          0.47996        0.46787       -0.87776
H          2.94559        0.06712        0.92753
H          1.98420        0.73770       -2.63260
H          2.29280        0.68440       -4.97960
H          2.75370       -0.91630       -5.57610
H          3.96420        0.39280       -5.48020
H          5.58577       -3.90108       -2.02968
H          4.38560       -1.69260       -0.01690
23

C          2.75390        1.13305        0.71157
C          2.38180        0.06330       -0.00320
C          3.08980       -0.43560       -1.19220
C          2.77200        0.00200       -2.48590
C          3.45590       -0.49600       -3.60100
C          3.09700       -0.05880       -4.98840
C          4.48090       -1.42550       -3.40270
F          5.12500       -1.91200       -4.47710
C          4.85310       -1.85510       -2.12140
C          5.91450       -2.86530       -1.99310
C          5.75683       -4.19181       -1.96416
F          4.53721       -4.76177       -2.04828
F          6.84692       -4.97791       -1.82963
C          4.14080       -1.35290       -1.02170
H          2.17063        1.44798        1.57141
H          3.62323        1.73268        0.46322
H          1.48106       -0.47588        0.28330
H          1.98420        0.73770       -2.63260
H          2.29280        0.68440       -4.97960
H          2.75370       -0.91630       -5.57610
H          3.96420        0.39280       -5.48020
H          6.92429       -2.47651       -1.88635
H          4.38560       -1.69260       -0.01690
23

C          1.28445       -0.49783        0.52089
C          2.38180        0.06330       -0.00320
C          3.08980       -0.43560       -1.19220
C          2.77200        0.00200       -2.48590
C          3.45590       -0.49600       -3.60100
C          3.09700       -0.05880       -4.98840
C          4.48090       -1.42550       -3.40270
F          5.12500       -1.91200       -4.47710
C          4.85310       -1.85510       -2.12140
C          5.91450       -2.86530       -1.99310
C          7.22519       -2.63700       -1.86939
F          7.72763       -1.38528       -1.85641
F          8.06674       -3.68904       -1.77270
C          4.14080       -1.35290       -1.02170
H          0.82521       -0.07777        1.41046
H          0.82241       -1.38662        0.10429
H          2.81172        0.93680        0.48290
H          1.98420        0.73770       -2.63260
H          2.29280        0.68440       -4.97960
H          2.75370       -0.91630       -5.57610
H          3.96420        0.39280       -5.48020
H          5.58577       -3.90108       -2.02968
H          4.38560       -1.69260       -0.01690
23

C          2.75390        1.13305        0.71157
C          2.38180        0.06330       -0.00320
C          3.08980       -0.43560       -1.19220
C          2.77200        0.00200       -2.48590
C          3.45590       -0.49600       -3.60100
C          3.09700       -0.05880       -4.98840
C          4.48090       -1.42550       -3.40270
F          5.12500       -1.91200       -4.47710
C          4.85310       -1.85510       -2.12140
C          5.91450       -2.86530       -1.99310
C          7.22519       -2.63700       -1.86939
F          7.72763       -1.38528       -1.85641
F          8.06674       -3.68904       -1.77270
C          4.14080       -1.35290       -1.02170
H          2.17063        1.44798        1.57141
H          3.62323        1.73268        0.46322
H          1.48106       -0.47588        0.28330
H          1.98420        0.73770       -2.63260
H          2.29280        0.68440       -4.97960
H          2.75370       -0.91630       -5.57610
H          3.96420        0.39280       -5.48020
H          5.58577       -3.90108       -2.02968
H          4.38560       -1.69260       -0.01690
23

C          2.65110       -0.30812        1.25507
C          2.38180        0.06330       -0.00320
C          3.08980       -0.43560       -1.19220
C          2.77200        0.00200       -2.48590
C          3.45590       -0.49600       -3.60100
C          3.09700       -0.05880       -4.98840
C          4.48090       -1.42550       -3.40270
F          5.12500       -1.91200       -4.47710
C          4.85310       -1.85510       -2.12140
C          5.91450       -2.86530       -1.99310
C          6.38223       -3.39432       -0.85878
F          5.90095       -3.02485        0.34590
F          7.37403       -4.30896       -0.92311
C          4.14080       -1.35290       -1.02170
H          2.09187        0.11565        2.08355
H          3.43239       -1.01848        1.50396
H          1.60446        0.80393       -0.18022
H          1.98420        0.73770       -2.63260
H          2.29280        0.68440       -4.97960
H          2.75370       -0.91630       -5.57610
H          3.96420        0.39280       -5.48020
H          6.37393       -3.18664       -2.92471
H          4.38560       -1.69260       -0.01690
23

C          1.28445       -0.49783        0.52089
C          2.38180        0.06330       -0.00320
C          3.08980       -0.43560       -1.19220
C          2.77200        0.00200       -2.48590
C          3.45590       -0.49600       -3.60100
C          3.09700       -0.05880       -4.98840
C          4.48090       -1.42550       -3.40270
F          5.12500       -1.91200       -4.47710
C          4.85310       -1.85510       -2.12140
C          5.91450       -2.86530       -1.99310
C          6.77603       -2.99598       -0.98018
F          6.75591       -2.16050        0.07858
F          7.70013       -3.97984       -1.02947
C          4.14080       -1.35290       -1.02170
H          0.82521       -0.07777        1.41046
H          0.82241       -1.38662        0.10429
H          2.81172        0.93680        0.48290
H          1.98420        0.73770       -2.63260
H          2.29280        0.68440       -4.97960
H          2.75370       -0.91630       -5.57610
H          3.96420        0.39280       -5.48020
H          6.01223       -3.55444       -2.82842
H          4.38560       -1.69260       -0.01690
23

C          2.75390        1.13305        0.71157
C          2.38180        0.06330       -0.00320
C          3.08980       -0.43560       -1.19220
C          2.77200        0.00200       -2.48590
C          3.45590       -0.49600       -3.60100
C          3.09700       -0.05880       -4.98840
C          4.48090       -1.42550       -3.40270
F          5.12500       -1.91200       -4.47710
C          4.85310       -1.85510       -2.12140
C          5.91450       -2.86530       -1.99310
C          6.77603       -2.99598       -0.98018
F          6.75591       -2.16050        0.07858
F          7.70013       -3.97984       -1.02947
C          4.14080       -1.35290       -1.02170
H          2.17063        1.44798        1.57141
H          3.62323        1.73268        0.46322
H          1.48106       -0.47588        0.28330
H          1.98420        0.73770       -2.63260
H          2.29280        0.68440       -4.97960
H          2.75370       -0.91630       -5.57610
H          3.96420        0.39280       -5.48020
H          6.01223       -3.55444       -2.82842
H          4.38560       -1.69260       -0.01690
23

C          1.28445       -0.49783        0.52089
C          2.38180        0.06330       -0.00320
C          3.08980       -0.43560       -1.19220
C          2.77200        0.00200       -2.48590
C          3.45590       -0.49600       -3.60100
C          3.09700       -0.05880       -4.98840
C          4.48090       -1.42550       -3.40270
F          5.12500       -1.91200       -4.47710
C          4.85310       -1.85510       -2.12140
C          5.91450       -2.86530       -1.99310
C          6.21567       -3.82508       -2.87255
F          5.52989       -3.96984       -4.02500
F          7.22144       -4.68084       -2.58889
C          4.14080       -1.35290       -1.02170
H          0.82521       -0.07777        1.41046
H          0.82241       -1.38662        0.10429
H          2.81172        0.93680        0.48290
H          1.98420        0.73770       -2.63260
H          2.29280        0.68440       -4.97960
H          2.75370       -0.91630       -5.57610
H          3.96420        0.39280       -5.48020
H          6.48863       -2.83062       -1.07038
H          4.38560       -1.69260       -0.01690
