 xtb: 6.5.0 (unknown)
          08112218553D

 26  0  0     0  0            999 V2000
    0.7581   -4.1951    0.0667 C   0  0  0  0  0  0  0  0  0  0  0  0
    1.3847   -3.1254   -0.4031 C   0  0  0  0  0  0  0  0  0  0  0  0
    0.8813   -1.7557   -0.2896 C   0  0  0  0  0  0  0  0  0  0  0  0
   -0.4649   -1.5119   -0.4141 C   0  0  0  0  0  0  0  0  0  0  0  0
   -1.0138   -0.2156   -0.3471 C   0  0  0  0  0  0  0  0  0  0  0  0
   -2.4584   -0.0569   -0.4855 C   0  0  0  0  0  0  0  0  0  0  0  0
   -3.2121    0.8287    0.1468 C   0  0  0  0  0  0  0  0  0  0  0  0
   -2.8322    1.7085    1.0567 F   0  0  0  0  0  0  0  0  0  0  0  0
   -4.5300    0.9129   -0.0222 F   0  0  0  0  0  0  0  0  0  0  0  0
   -0.1435    0.8392   -0.1910 C   0  0  0  0  0  0  0  0  0  0  0  0
   -0.6099    2.1040   -0.2157 F   0  0  0  0  0  0  0  0  0  0  0  0
    1.2483    0.6582   -0.0496 C   0  0  0  0  0  0  0  0  0  0  0  0
    2.1160    1.7554    0.1331 C   0  0  0  0  0  0  0  0  0  0  0  0
    3.4577    1.5569    0.2976 C   0  0  0  0  0  0  0  0  0  0  0  0
    3.9797    0.2564    0.2926 C   0  0  0  0  0  0  0  0  0  0  0  0
    3.1593   -0.8238    0.1095 C   0  0  0  0  0  0  0  0  0  0  0  0
    1.7724   -0.6617   -0.0830 C   0  0  0  0  0  0  0  0  0  0  0  0
    1.1604   -5.1857   -0.0575 H   0  0  0  0  0  0  0  0  0  0  0  0
   -0.1683   -4.1212    0.6112 H   0  0  0  0  0  0  0  0  0  0  0  0
    2.3291   -3.2435   -0.9171 H   0  0  0  0  0  0  0  0  0  0  0  0
   -1.1389   -2.3378   -0.5837 H   0  0  0  0  0  0  0  0  0  0  0  0
   -2.9691   -0.7454   -1.1418 H   0  0  0  0  0  0  0  0  0  0  0  0
    1.6957    2.7495    0.1490 H   0  0  0  0  0  0  0  0  0  0  0  0
    4.1197    2.3977    0.4397 H   0  0  0  0  0  0  0  0  0  0  0  0
    5.0398    0.1101    0.4384 H   0  0  0  0  0  0  0  0  0  0  0  0
    3.5778   -1.8179    0.1253 H   0  0  0  0  0  0  0  0  0  0  0  0
M  END
