
 OpenBabel02012213493D

 26 26  0  0  0  0  0  0  0  0999 V2000
    1.1500   -0.0969    0.5061 C   0  0  0  0  0  0  0  0  0  0  0  0
    2.3410    0.1145   -0.1574 O   0  0  0  0  0  0  0  0  0  0  0  0
    3.0227    1.2904   -0.2265 C   0  0  0  0  0  0  0  0  0  0  0  0
    2.5979    2.4436    0.4582 C   0  0  0  0  0  0  0  0  0  0  0  0
    3.3084    3.6570    0.3707 C   0  0  0  0  0  0  0  0  0  0  0  0
    2.7680    4.8268    1.1550 C   0  0  0  0  0  0  0  0  0  0  0  0
    4.4842    3.7117   -0.4393 C   0  0  0  0  0  0  0  0  0  0  0  0
    5.2733    4.8061   -0.6410 O   0  0  0  0  0  0  0  0  0  0  0  0
    5.1361    6.1026   -0.1975 C   0  0  0  0  0  0  0  0  0  0  0  0
    4.8966    2.5507   -1.1074 C   0  0  0  0  0  0  0  0  0  0  0  0
    4.1847    1.3489   -1.0093 C   0  0  0  0  0  0  0  0  0  0  0  0
    4.6638    0.1288   -1.7463 C   0  0  0  0  0  0  0  0  0  0  0  0
    0.8462   -1.1557    0.3756 H   0  0  0  0  0  0  0  0  0  0  0  0
    0.3564    0.5534    0.0798 H   0  0  0  0  0  0  0  0  0  0  0  0
    1.2698    0.1055    1.5915 H   0  0  0  0  0  0  0  0  0  0  0  0
    1.7052    2.4004    1.0677 H   0  0  0  0  0  0  0  0  0  0  0  0
    1.8492    4.5595    1.7190 H   0  0  0  0  0  0  0  0  0  0  0  0
    2.4892    5.6561    0.4773 H   0  0  0  0  0  0  0  0  0  0  0  0
    3.5092    5.1575    1.9087 H   0  0  0  0  0  0  0  0  0  0  0  0
    5.9809    6.7006   -0.5960 H   0  0  0  0  0  0  0  0  0  0  0  0
    5.1939    6.1511    0.9066 H   0  0  0  0  0  0  0  0  0  0  0  0
    4.2028    6.5526   -0.5910 H   0  0  0  0  0  0  0  0  0  0  0  0
    5.7907    2.5926   -1.7184 H   0  0  0  0  0  0  0  0  0  0  0  0
    5.5910    0.3332   -2.3229 H   0  0  0  0  0  0  0  0  0  0  0  0
    3.8803   -0.2115   -2.4558 H   0  0  0  0  0  0  0  0  0  0  0  0
    4.8775   -0.6852   -1.0217 H   0  0  0  0  0  0  0  0  0  0  0  0
  1  2  1  0  0  0  0
  1 13  1  0  0  0  0
  1 14  1  0  0  0  0
  1 15  1  0  0  0  0
  2  3  1  0  0  0  0
  3  4  1  0  0  0  0
  3 11  2  0  0  0  0
  4  5  2  0  0  0  0
  4 16  1  0  0  0  0
  5  6  1  0  0  0  0
  5  7  1  0  0  0  0
  6 17  1  0  0  0  0
  6 18  1  0  0  0  0
  6 19  1  0  0  0  0
  7  8  1  0  0  0  0
  7 10  2  0  0  0  0
  8  9  1  0  0  0  0
  9 20  1  0  0  0  0
  9 21  1  0  0  0  0
  9 22  1  0  0  0  0
 10 11  1  0  0  0  0
 10 23  1  0  0  0  0
 11 12  1  0  0  0  0
 12 24  1  0  0  0  0
 12 25  1  0  0  0  0
 12 26  1  0  0  0  0
M  END
