19

C          2.53070        1.11295        0.55184
C          2.24960       -0.06550       -0.01380
C          3.01370       -0.57910       -1.17400
N          4.11400       -1.35030       -1.05100
N          4.55980       -1.62990       -2.26230
C          3.76540       -1.05500       -3.18220
N          3.98310       -1.22700       -4.57130
C          2.75090       -0.34960       -2.52550
C          1.61440        0.47940       -3.02790
C          1.63295        1.79325       -3.27600
H          1.94891        1.45791        1.40052
H          3.33369        1.74316        0.18228
H          1.43471       -0.64547        0.40245
H          5.39630       -2.22470       -2.45360
H          4.79060       -1.78230       -4.88880
H          3.33110       -0.90020       -5.28730
H          0.66293       -0.01359       -3.18660
H          2.48629        2.42482       -3.12372
H          0.72746        2.27711       -3.62788
19

C          1.23042       -0.74744        0.51905
C          2.24960       -0.06550       -0.01380
C          3.01370       -0.57910       -1.17400
N          4.11400       -1.35030       -1.05100
N          4.55980       -1.62990       -2.26230
C          3.76540       -1.05500       -3.18220
N          3.98310       -1.22700       -4.57130
C          2.75090       -0.34960       -2.52550
C          1.61440        0.47940       -3.02790
C          0.38460        0.04951       -3.32936
H          0.69346       -0.34045        1.36980
H          0.92044       -1.70871        0.12101
H          2.50915        0.88740        0.43149
H          5.39630       -2.22470       -2.45360
H          4.79060       -1.78230       -4.88880
H          3.33110       -0.90020       -5.28730
H          1.79624        1.53387       -3.19689
H          0.06749       -0.97255       -3.25798
H         -0.34736        0.76021       -3.69949
19

C          1.23042       -0.74744        0.51905
C          2.24960       -0.06550       -0.01380
C          3.01370       -0.57910       -1.17400
N          4.11400       -1.35030       -1.05100
N          4.55980       -1.62990       -2.26230
C          3.76540       -1.05500       -3.18220
N          3.98310       -1.22700       -4.57130
C          2.75090       -0.34960       -2.52550
C          1.61440        0.47940       -3.02790
C          1.63295        1.79325       -3.27600
H          0.69346       -0.34045        1.36980
H          0.92044       -1.70871        0.12101
H          2.50915        0.88740        0.43149
H          5.39630       -2.22470       -2.45360
H          4.79060       -1.78230       -4.88880
H          3.33110       -0.90020       -5.28730
H          0.66293       -0.01359       -3.18660
H          2.48629        2.42482       -3.12372
H          0.72746        2.27711       -3.62788
19

C          2.53070        1.11295        0.55184
C          2.24960       -0.06550       -0.01380
C          3.01370       -0.57910       -1.17400
N          4.11400       -1.35030       -1.05100
N          4.55980       -1.62990       -2.26230
C          3.76540       -1.05500       -3.18220
N          3.98310       -1.22700       -4.57130
C          2.75090       -0.34960       -2.52550
C          1.61440        0.47940       -3.02790
C          0.38460        0.04951       -3.32936
H          1.94891        1.45791        1.40052
H          3.33369        1.74316        0.18228
H          1.43471       -0.64547        0.40245
H          5.39630       -2.22470       -2.45360
H          4.79060       -1.78230       -4.88880
H          3.33110       -0.90020       -5.28730
H          1.79624        1.53387       -3.19689
H          0.06749       -0.97255       -3.25798
H         -0.34736        0.76021       -3.69949
19

C          1.23042       -0.74744        0.51905
C          2.24960       -0.06550       -0.01380
C          3.01370       -0.57910       -1.17400
N          4.11400       -1.35030       -1.05100
N          4.55980       -1.62990       -2.26230
C          3.76540       -1.05500       -3.18220
N          3.98310       -1.22700       -4.57130
C          2.75090       -0.34960       -2.52550
C          1.61440        0.47940       -3.02790
C          0.95729        0.31832       -4.18131
H          0.69346       -0.34045        1.36980
H          0.92044       -1.70871        0.12101
H          2.50915        0.88740        0.43149
H          5.39630       -2.22470       -2.45360
H          4.79060       -1.78230       -4.88880
H          3.33110       -0.90020       -5.28730
H          1.29542        1.31777       -2.42052
H          1.18717       -0.43702       -4.90717
H          0.15406        1.00386       -4.43174
19

C          1.23042       -0.74744        0.51905
C          2.24960       -0.06550       -0.01380
C          3.01370       -0.57910       -1.17400
N          4.11400       -1.35030       -1.05100
N          4.55980       -1.62990       -2.26230
C          3.76540       -1.05500       -3.18220
N          3.98310       -1.22700       -4.57130
C          2.75090       -0.34960       -2.52550
C          1.61440        0.47940       -3.02790
C          1.58812        1.19949       -4.15434
H          0.69346       -0.34045        1.36980
H          0.92044       -1.70871        0.12101
H          2.50915        0.88740        0.43149
H          5.39630       -2.22470       -2.45360
H          4.79060       -1.78230       -4.88880
H          3.33110       -0.90020       -5.28730
H          0.72272        0.53579       -2.41533
H          2.40947        1.27979       -4.83933
H          0.69721        1.77041       -4.39555
19

C          1.58967        1.09640       -0.06058
C          2.24960       -0.06550       -0.01380
C          3.01370       -0.57910       -1.17400
N          4.11400       -1.35030       -1.05100
N          4.55980       -1.62990       -2.26230
C          3.76540       -1.05500       -3.18220
N          3.98310       -1.22700       -4.57130
C          2.75090       -0.34960       -2.52550
C          1.61440        0.47940       -3.02790
C          0.38460        0.04951       -3.32936
H          1.03948        1.44120        0.80898
H          1.58757        1.71276       -0.95425
H          2.21053       -0.63331        0.90801
H          5.39630       -2.22470       -2.45360
H          4.79060       -1.78230       -4.88880
H          3.33110       -0.90020       -5.28730
H          1.79624        1.53387       -3.19689
H          0.06749       -0.97255       -3.25798
H         -0.34736        0.76021       -3.69949
19

C          1.58967        1.09640       -0.06058
C          2.24960       -0.06550       -0.01380
C          3.01370       -0.57910       -1.17400
N          4.11400       -1.35030       -1.05100
N          4.55980       -1.62990       -2.26230
C          3.76540       -1.05500       -3.18220
N          3.98310       -1.22700       -4.57130
C          2.75090       -0.34960       -2.52550
C          1.61440        0.47940       -3.02790
C          1.63295        1.79325       -3.27600
H          1.03948        1.44120        0.80898
H          1.58757        1.71276       -0.95425
H          2.21053       -0.63331        0.90801
H          5.39630       -2.22470       -2.45360
H          4.79060       -1.78230       -4.88880
H          3.33110       -0.90020       -5.28730
H          0.66293       -0.01359       -3.18660
H          2.48629        2.42482       -3.12372
H          0.72746        2.27711       -3.62788
19

C          1.15408        0.68581       -0.16570
C          2.24960       -0.06550       -0.01380
C          3.01370       -0.57910       -1.17400
N          4.11400       -1.35030       -1.05100
N          4.55980       -1.62990       -2.26230
C          3.76540       -1.05500       -3.18220
N          3.98310       -1.22700       -4.57130
C          2.75090       -0.34960       -2.52550
C          1.61440        0.47940       -3.02790
C          1.04791        1.51864       -2.40568
H          0.61877        1.04419        0.70765
H          0.77919        0.95098       -1.14942
H          2.57018       -0.29524        0.99522
H          5.39630       -2.22470       -2.45360
H          4.79060       -1.78230       -4.88880
H          3.33110       -0.90020       -5.28730
H          1.17456        0.20716       -3.97971
H          1.34247        1.87773       -1.43896
H          0.21522        2.02820       -2.87985
19

C          1.15408        0.68581       -0.16570
C          2.24960       -0.06550       -0.01380
C          3.01370       -0.57910       -1.17400
N          4.11400       -1.35030       -1.05100
N          4.55980       -1.62990       -2.26230
C          3.76540       -1.05500       -3.18220
N          3.98310       -1.22700       -4.57130
C          2.75090       -0.34960       -2.52550
C          1.61440        0.47940       -3.02790
C          1.63295        1.79325       -3.27600
H          0.61877        1.04419        0.70765
H          0.77919        0.95098       -1.14942
H          2.57018       -0.29524        0.99522
H          5.39630       -2.22470       -2.45360
H          4.79060       -1.78230       -4.88880
H          3.33110       -0.90020       -5.28730
H          0.66293       -0.01359       -3.18660
H          2.48629        2.42482       -3.12372
H          0.72746        2.27711       -3.62788
