
  xtb     02032210553D
 xtb: 6.4.1 (23d549d)
 20 21  0     0  0            999 V2000
    2.3234    0.0601   -1.1657 c   0  0  0  0  0  0  0  0  0  0  0  0
    2.7053    0.0470    0.1091 c   0  0  0  0  0  0  0  0  0  0  0  0
    3.1808   -1.1066    0.8236 c   0  0  0  0  0  0  0  0  0  0  0  0
    3.3223   -2.4033    0.3975 c   0  0  0  0  0  0  0  0  0  0  0  0
    3.8203   -3.2340    1.4093 c   0  0  0  0  0  0  0  0  0  0  0  0
    4.2126   -4.9108    1.5293 s   0  0  0  0  0  0  0  0  0  0  0  0
    4.7031   -4.7088    3.2032 c   0  0  0  0  0  0  0  0  0  0  0  0
    5.1748   -5.8635    3.9182 c   0  0  0  0  0  0  0  0  0  0  0  0
    5.6040   -5.8677    5.1781 c   0  0  0  0  0  0  0  0  0  0  0  0
    4.5641   -3.4115    3.6287 c   0  0  0  0  0  0  0  0  0  0  0  0
    4.0656   -2.5809    2.6170 c   0  0  0  0  0  0  0  0  0  0  0  0
    3.6692   -0.9049    2.4982 s   0  0  0  0  0  0  0  0  0  0  0  0
    1.9765    0.9638   -1.6343 h   0  0  0  0  0  0  0  0  0  0  0  0
    2.3449   -0.8230   -1.7804 h   0  0  0  0  0  0  0  0  0  0  0  0
    2.6701    0.9588    0.6911 h   0  0  0  0  0  0  0  0  0  0  0  0
    3.0786   -2.7406   -0.5922 h   0  0  0  0  0  0  0  0  0  0  0  0
    5.1667   -6.7837    3.3495 h   0  0  0  0  0  0  0  0  0  0  0  0
    5.6308   -4.9753    5.7778 h   0  0  0  0  0  0  0  0  0  0  0  0
    5.9430   -6.7731    5.6491 h   0  0  0  0  0  0  0  0  0  0  0  0
    4.8062   -3.0747    4.6186 h   0  0  0  0  0  0  0  0  0  0  0  0
  1  2  2  0  0  0  0
  2  3  1  0  0  0  0
  3  4  2  0  0  0  0
  4  5  4  0  0  0  0
  5  6  1  0  0  0  0
  6  7  1  0  0  0  0
  7  8  1  0  0  0  0
  8  9  2  0  0  0  0
  7 10  2  0  0  0  0
  5 11  4  0  0  0  0
 10 11  4  0  0  0  0
  3 12  1  0  0  0  0
 11 12  1  0  0  0  0
  1 13  1  0  0  0  0
  1 14  1  0  0  0  0
  2 15  1  0  0  0  0
  4 16  1  0  0  0  0
  8 17  1  0  0  0  0
  9 18  1  0  0  0  0
  9 19  1  0  0  0  0
 10 20  1  0  0  0  0
M  END
