
  xtb     02032211263D
 xtb: 6.4.1 (23d549d)
 34 35  0     0  0            999 V2000
    1.7310    0.7880   -0.4059 c   0  0  0  0  0  0  0  0  0  0  0  0
    2.4231   -0.3300   -0.2154 c   0  0  0  0  0  0  0  0  0  0  0  0
    3.1210   -0.7212    1.0003 c   0  0  0  0  0  0  0  0  0  0  0  0
    3.6221   -2.0214    1.1102 c   0  0  0  0  0  0  0  0  0  0  0  0
    4.2759   -2.4477    2.2445 c   0  0  0  0  0  0  0  0  0  0  0  0
    4.4699   -1.5853    3.3282 c   0  0  0  0  0  0  0  0  0  0  0  0
    5.1399   -1.9688    4.5524 c   0  0  0  0  0  0  0  0  0  0  0  0
    5.5777   -3.1966    4.8753 c   0  0  0  0  0  0  0  0  0  0  0  0
    6.2356   -3.5772    6.1073 c   0  0  0  0  0  0  0  0  0  0  0  0
    6.5128   -2.6822    7.1468 c   0  0  0  0  0  0  0  0  0  0  0  0
    7.1390   -3.0981    8.2995 c   0  0  0  0  0  0  0  0  0  0  0  0
    7.5224   -4.4304    8.4759 c   0  0  0  0  0  0  0  0  0  0  0  0
    8.1865   -4.9176    9.6753 c   0  0  0  0  0  0  0  0  0  0  0  0
    8.5348   -4.2022   10.7394 c   0  0  0  0  0  0  0  0  0  0  0  0
    7.2461   -5.3261    7.4397 c   0  0  0  0  0  0  0  0  0  0  0  0
    6.6196   -4.9109    6.2861 c   0  0  0  0  0  0  0  0  0  0  0  0
    3.9845   -0.2775    3.2077 c   0  0  0  0  0  0  0  0  0  0  0  0
    3.3243    0.1454    2.0765 c   0  0  0  0  0  0  0  0  0  0  0  0
    1.2412    0.9908   -1.3426 h   0  0  0  0  0  0  0  0  0  0  0  0
    1.6166    1.5398    0.3569 h   0  0  0  0  0  0  0  0  0  0  0  0
    2.4812   -1.0532   -1.0205 h   0  0  0  0  0  0  0  0  0  0  0  0
    3.4858   -2.7081    0.2858 h   0  0  0  0  0  0  0  0  0  0  0  0
    4.6467   -3.4604    2.2871 h   0  0  0  0  0  0  0  0  0  0  0  0
    5.2700   -1.1586    5.2579 h   0  0  0  0  0  0  0  0  0  0  0  0
    5.4378   -4.0101    4.1753 h   0  0  0  0  0  0  0  0  0  0  0  0
    6.2334   -1.6442    7.0513 h   0  0  0  0  0  0  0  0  0  0  0  0
    7.3338   -2.3772    9.0786 h   0  0  0  0  0  0  0  0  0  0  0  0
    8.4080   -5.9785    9.6651 h   0  0  0  0  0  0  0  0  0  0  0  0
    8.3507   -3.1444   10.8175 h   0  0  0  0  0  0  0  0  0  0  0  0
    9.0285   -4.6559   11.5815 h   0  0  0  0  0  0  0  0  0  0  0  0
    7.5305   -6.3637    7.5489 h   0  0  0  0  0  0  0  0  0  0  0  0
    6.4186   -5.6271    5.5012 h   0  0  0  0  0  0  0  0  0  0  0  0
    4.1310    0.4134    4.0266 h   0  0  0  0  0  0  0  0  0  0  0  0
    2.9700    1.1632    2.0215 h   0  0  0  0  0  0  0  0  0  0  0  0
  1  2  2  0  0  0  0
  2  3  1  0  0  0  0
  3  4  4  0  0  0  0
  4  5  4  0  0  0  0
  5  6  4  0  0  0  0
  6  7  1  0  0  0  0
  7  8  2  0  0  0  0
  8  9  1  0  0  0  0
  9 10  4  0  0  0  0
 10 11  4  0  0  0  0
 11 12  4  0  0  0  0
 12 13  1  0  0  0  0
 13 14  2  0  0  0  0
 12 15  4  0  0  0  0
  9 16  4  0  0  0  0
 15 16  4  0  0  0  0
  6 17  4  0  0  0  0
  3 18  4  0  0  0  0
 17 18  4  0  0  0  0
  1 19  1  0  0  0  0
  1 20  1  0  0  0  0
  2 21  1  0  0  0  0
  4 22  1  0  0  0  0
  5 23  1  0  0  0  0
  7 24  1  0  0  0  0
  8 25  1  0  0  0  0
 10 26  1  0  0  0  0
 11 27  1  0  0  0  0
 13 28  1  0  0  0  0
 14 29  1  0  0  0  0
 14 30  1  0  0  0  0
 15 31  1  0  0  0  0
 16 32  1  0  0  0  0
 17 33  1  0  0  0  0
 18 34  1  0  0  0  0
M  END
