
 OpenBabel02012214073D

 19 19  0  0  0  0  0  0  0  0999 V2000
    0.9058    0.0517    0.0133 C   0  0  0  0  0  0  0  0  0  0  0  0
    2.4100    0.0660    0.0172 C   0  0  0  0  0  0  0  0  0  0  0  0
    3.0975    1.2891    0.0211 C   0  0  0  0  0  0  0  0  0  0  0  0
    4.4917    1.3151    0.0253 C   0  0  0  0  0  0  0  0  0  0  0  0
    5.1459    2.5027    0.0290 F   0  0  0  0  0  0  0  0  0  0  0  0
    5.2150    0.1222    0.0263 C   0  0  0  0  0  0  0  0  0  0  0  0
    4.5509   -1.1156    0.0224 C   0  0  0  0  0  0  0  0  0  0  0  0
    5.3592   -2.3852    0.0246 C   0  0  0  0  0  0  0  0  0  0  0  0
    3.1341   -1.1442    0.0175 C   0  0  0  0  0  0  0  0  0  0  0  0
    2.4526   -2.3131    0.0133 O   0  0  0  0  0  0  0  0  0  0  0  0
    0.4858    1.0800    0.0137 H   0  0  0  0  0  0  0  0  0  0  0  0
    0.5344   -0.4761    0.9167 H   0  0  0  0  0  0  0  0  0  0  0  0
    0.5383   -0.4738   -0.8931 H   0  0  0  0  0  0  0  0  0  0  0  0
    2.5536    2.2257    0.0209 H   0  0  0  0  0  0  0  0  0  0  0  0
    6.2972    0.1659    0.0299 H   0  0  0  0  0  0  0  0  0  0  0  0
    6.4507   -2.1782    0.0293 H   0  0  0  0  0  0  0  0  0  0  0  0
    5.1266   -2.9807   -0.8831 H   0  0  0  0  0  0  0  0  0  0  0  0
    5.1193   -2.9815    0.9299 H   0  0  0  0  0  0  0  0  0  0  0  0
    2.8749   -3.1825    0.0118 H   0  0  0  0  0  0  0  0  0  0  0  0
  1  2  1  0  0  0  0
  1 11  1  0  0  0  0
  1 12  1  0  0  0  0
  1 13  1  0  0  0  0
  2  3  1  0  0  0  0
  2  9  2  0  0  0  0
  3  4  2  0  0  0  0
  3 14  1  0  0  0  0
  4  5  1  0  0  0  0
  4  6  1  0  0  0  0
  6  7  2  0  0  0  0
  6 15  1  0  0  0  0
  7  8  1  0  0  0  0
  7  9  1  0  0  0  0
  8 16  1  0  0  0  0
  8 17  1  0  0  0  0
  8 18  1  0  0  0  0
  9 10  1  0  0  0  0
 10 19  1  0  0  0  0
M  END
