46

C          2.04562        0.70238       -1.55094
C          2.28049        0.09277       -0.38122
C          3.05684        0.68146        0.74553
C          3.58765        1.96542        0.58844
C          4.34434        2.55846        1.60148
C          4.60670        1.89080        2.82450
C          5.47040        2.56410        3.88530
C          5.98520        3.84940        3.60460
C          6.83580        4.55300        4.47850
C          7.32340        5.90010        3.99500
C          7.23420        3.95170        5.70880
C          8.19970        4.56080        6.71420
C          8.13347        4.32675        8.10419
C          9.04122        4.91231        8.98966
C         10.05650        5.75855        8.52866
C         10.99205        6.35177        9.52372
C         12.27179        6.66796        9.28026
C         10.14384        6.00299        7.14917
C          9.23675        5.41545        6.26378
C          6.72170        2.66910        5.98930
C          5.85190        1.97490        5.12950
C          5.43340        0.59590        5.58580
C          4.04400        0.60279        2.97104
C          3.28769        0.00941        1.95570
H          1.45920        0.19352       -2.30932
H          2.40789        1.69510       -1.78263
H          1.85926       -0.90017       -0.24744
H          3.42965        2.51284       -0.33324
H          4.74457        3.53728        1.38635
H          5.71310        4.34040        2.68330
H          7.01820        6.10530        2.94670
H          8.43260        5.93910        4.02260
H          6.86300        6.71980        4.57310
H          7.41451        3.67197        8.54491
H          8.95297        4.69603       10.04794
H         10.61642        6.54576       10.52513
H         12.74580        6.51480        8.32134
H         12.87448        7.09758       10.07499
H         10.90302        6.64826        6.73421
H          9.35206        5.66676        5.21936
H          6.98540        2.18680        6.91880
H          5.97130        0.27390        6.50260
H          5.65930       -0.15500        4.80020
H          4.37010        0.58800        5.88560
H          4.14379        0.02602        3.86125
H          2.89087       -0.97780        2.13831
46

C          2.07772       -1.56549       -0.13764
C          2.11487       -0.22967       -0.04172
C          2.96625        0.53254        0.91381
C          3.79503       -0.18309        1.78328
C          4.59706        0.47705        2.71680
C          4.60670        1.89080        2.82450
C          5.47040        2.56410        3.88530
C          5.98520        3.84940        3.60460
C          6.83580        4.55300        4.47850
C          7.32340        5.90010        3.99500
C          7.23420        3.95170        5.70880
C          8.19970        4.56080        6.71420
C          8.13347        4.32675        8.10419
C          9.04122        4.91231        8.98966
C         10.05650        5.75855        8.52866
C         10.99205        6.35177        9.52372
C         12.14651        5.79601        9.91787
C         10.14384        6.00299        7.14917
C          9.23675        5.41545        6.26378
C          6.72170        2.66910        5.98930
C          5.85190        1.97490        5.12950
C          5.43340        0.59590        5.58580
C          3.77767        2.59575        1.92293
C          2.97408        1.93385        0.98959
H          1.42953       -2.02954       -0.87416
H          2.67493       -2.21897        0.48424
H          1.48306        0.33310       -0.72391
H          3.81343       -1.26608        1.75280
H          5.18131       -0.15091        3.37169
H          5.71310        4.34040        2.68330
H          7.01820        6.10530        2.94670
H          8.43260        5.93910        4.02260
H          6.86300        6.71980        4.57310
H          7.41451        3.67197        8.54491
H          8.95297        4.69603       10.04794
H         10.72564        7.30713        9.96855
H         12.50480        4.84869        9.54120
H         12.76122        6.30914       10.65151
H         10.90302        6.64826        6.73421
H          9.35206        5.66676        5.21936
H          6.98540        2.18680        6.91880
H          5.97130        0.27390        6.50260
H          5.65930       -0.15500        4.80020
H          4.37010        0.58800        5.88560
H          3.73462        3.65972        1.88805
H          2.36545        2.53847        0.33430
46

C          2.55540        0.22311       -1.66181
C          2.34446       -0.02057       -0.36137
C          3.08568        0.62537        0.75765
C          4.07945        1.55838        0.44637
C          4.82337        2.17790        1.45300
C          4.60670        1.89080        2.82450
C          5.47040        2.56410        3.88530
C          5.98520        3.84940        3.60460
C          6.83580        4.55300        4.47850
C          7.32340        5.90010        3.99500
C          7.23420        3.95170        5.70880
C          8.19970        4.56080        6.71420
C          8.36224        5.95000        6.90109
C          9.26539        6.46272        7.83510
C         10.04800        5.61263        8.62522
C         10.99231        6.22179        9.60221
C         10.81052        7.40186       10.21163
C          9.90054        4.22664        8.45898
C          8.99559        3.71438        7.52594
C          6.72170        2.66910        5.98930
C          5.85190        1.97490        5.12950
C          5.43340        0.59590        5.58580
C          3.58411        0.96071        3.11831
C          2.84080        0.34003        2.10971
H          1.95585       -0.29252       -2.40519
H          3.29829        0.92416       -2.01827
H          1.56411       -0.73483       -0.11207
H          4.29560        1.80198       -0.58710
H          5.59284        2.86000        1.12557
H          5.71310        4.34040        2.68330
H          7.01820        6.10530        2.94670
H          8.43260        5.93910        4.02260
H          6.86300        6.71980        4.57310
H          7.78737        6.67457        6.36778
H          9.34889        7.53753        7.94628
H         11.89970        5.67450        9.84446
H          9.94582        8.02724       10.04172
H         11.55999        7.76106       10.91067
H         10.47780        3.52123        9.03700
H          8.95224        2.63844        7.43796
H          6.98540        2.18680        6.91880
H          5.97130        0.27390        6.50260
H          5.65930       -0.15500        4.80020
H          4.37010        0.58800        5.88560
H          3.30911        0.69890        4.11375
H          2.07669       -0.36105        2.40976
46

C          2.70647       -1.16197       -0.96235
C          2.34446       -0.02057       -0.36137
C          3.08568        0.62537        0.75765
C          4.07945        1.55838        0.44637
C          4.82337        2.17790        1.45300
C          4.60670        1.89080        2.82450
C          5.47040        2.56410        3.88530
C          5.98520        3.84940        3.60460
C          6.83580        4.55300        4.47850
C          7.32340        5.90010        3.99500
C          7.23420        3.95170        5.70880
C          8.19970        4.56080        6.71420
C          8.36224        5.95000        6.90109
C          9.26539        6.46272        7.83510
C         10.04800        5.61263        8.62522
C         10.99231        6.22179        9.60221
C         10.69406        6.51843       10.87502
C          9.90054        4.22664        8.45898
C          8.99559        3.71438        7.52594
C          6.72170        2.66910        5.98930
C          5.85190        1.97490        5.12950
C          5.43340        0.59590        5.58580
C          3.58411        0.96071        3.11831
C          2.84080        0.34003        2.10971
H          2.10425       -1.54969       -1.77780
H          3.58632       -1.72463       -0.68006
H          1.44888        0.47124       -0.73193
H          4.29560        1.80198       -0.58710
H          5.59284        2.86000        1.12557
H          5.71310        4.34040        2.68330
H          7.01820        6.10530        2.94670
H          8.43260        5.93910        4.02260
H          6.86300        6.71980        4.57310
H          7.78737        6.67457        6.36778
H          9.34889        7.53753        7.94628
H         12.00121        6.44589        9.26537
H          9.72166        6.33920       11.31089
H         11.45470        6.96224       11.51051
H         10.47780        3.52123        9.03700
H          8.95224        2.63844        7.43796
H          6.98540        2.18680        6.91880
H          5.97130        0.27390        6.50260
H          5.65930       -0.15500        4.80020
H          4.37010        0.58800        5.88560
H          3.30911        0.69890        4.11375
H          2.07669       -0.36105        2.40976
46

C          2.20576       -1.21574       -0.65913
C          2.28049        0.09277       -0.38122
C          3.05684        0.68146        0.74553
C          3.58765        1.96542        0.58844
C          4.34434        2.55846        1.60148
C          4.60670        1.89080        2.82450
C          5.47040        2.56410        3.88530
C          5.98520        3.84940        3.60460
C          6.83580        4.55300        4.47850
C          7.32340        5.90010        3.99500
C          7.23420        3.95170        5.70880
C          8.19970        4.56080        6.71420
C          8.36224        5.95000        6.90109
C          9.26539        6.46272        7.83510
C         10.04800        5.61263        8.62522
C         10.99231        6.22179        9.60221
C         10.69406        6.51843       10.87502
C          9.90054        4.22664        8.45898
C          8.99559        3.71438        7.52594
C          6.72170        2.66910        5.98930
C          5.85190        1.97490        5.12950
C          5.43340        0.59590        5.58580
C          4.04400        0.60279        2.97104
C          3.28769        0.00941        1.95570
H          1.61975       -1.54763       -1.51025
H          2.71295       -1.97305       -0.07635
H          1.74181        0.76982       -1.03902
H          3.42965        2.51284       -0.33324
H          4.74457        3.53728        1.38635
H          5.71310        4.34040        2.68330
H          7.01820        6.10530        2.94670
H          8.43260        5.93910        4.02260
H          6.86300        6.71980        4.57310
H          7.78737        6.67457        6.36778
H          9.34889        7.53753        7.94628
H         12.00121        6.44589        9.26537
H          9.72166        6.33920       11.31089
H         11.45470        6.96224       11.51051
H         10.47780        3.52123        9.03700
H          8.95224        2.63844        7.43796
H          6.98540        2.18680        6.91880
H          5.97130        0.27390        6.50260
H          5.65930       -0.15500        4.80020
H          4.37010        0.58800        5.88560
H          4.14379        0.02602        3.86125
H          2.89087       -0.97780        2.13831
46

C          1.82954       -1.25697       -0.32665
C          2.34446       -0.02057       -0.36137
C          3.08568        0.62537        0.75765
C          4.07945        1.55838        0.44637
C          4.82337        2.17790        1.45300
C          4.60670        1.89080        2.82450
C          5.47040        2.56410        3.88530
C          5.98520        3.84940        3.60460
C          6.83580        4.55300        4.47850
C          7.32340        5.90010        3.99500
C          7.23420        3.95170        5.70880
C          8.19970        4.56080        6.71420
C          8.13347        4.32675        8.10419
C          9.04122        4.91231        8.98966
C         10.05650        5.75855        8.52866
C         10.99205        6.35177        9.52372
C         12.14651        5.79601        9.91787
C         10.14384        6.00299        7.14917
C          9.23675        5.41545        6.26378
C          6.72170        2.66910        5.98930
C          5.85190        1.97490        5.12950
C          5.43340        0.59590        5.58580
C          3.58411        0.96071        3.11831
C          2.84080        0.34003        2.10971
H          1.31255       -1.64413       -1.19888
H          1.90898       -1.90568        0.53549
H          2.21860        0.54210       -1.28268
H          4.29560        1.80198       -0.58710
H          5.59284        2.86000        1.12557
H          5.71310        4.34040        2.68330
H          7.01820        6.10530        2.94670
H          8.43260        5.93910        4.02260
H          6.86300        6.71980        4.57310
H          7.41451        3.67197        8.54491
H          8.95297        4.69603       10.04794
H         10.72564        7.30713        9.96855
H         12.50480        4.84869        9.54120
H         12.76122        6.30914       10.65151
H         10.90302        6.64826        6.73421
H          9.35206        5.66676        5.21936
H          6.98540        2.18680        6.91880
H          5.97130        0.27390        6.50260
H          5.65930       -0.15500        4.80020
H          4.37010        0.58800        5.88560
H          3.30911        0.69890        4.11375
H          2.07669       -0.36105        2.40976
46

C          0.86661       -0.64695        0.20877
C          2.11487       -0.22967       -0.04172
C          2.96625        0.53254        0.91381
C          3.79503       -0.18309        1.78328
C          4.59706        0.47705        2.71680
C          4.60670        1.89080        2.82450
C          5.47040        2.56410        3.88530
C          5.98520        3.84940        3.60460
C          6.83580        4.55300        4.47850
C          7.32340        5.90010        3.99500
C          7.23420        3.95170        5.70880
C          8.19970        4.56080        6.71420
C          8.13347        4.32675        8.10419
C          9.04122        4.91231        8.98966
C         10.05650        5.75855        8.52866
C         10.99205        6.35177        9.52372
C         12.14651        5.79601        9.91787
C         10.14384        6.00299        7.14917
C          9.23675        5.41545        6.26378
C          6.72170        2.66910        5.98930
C          5.85190        1.97490        5.12950
C          5.43340        0.59590        5.58580
C          3.77767        2.59575        1.92293
C          2.97408        1.93385        0.98959
H          0.32848       -1.20550       -0.55044
H          0.35897       -0.46161        1.14598
H          2.53509       -0.48072       -1.01210
H          3.81343       -1.26608        1.75280
H          5.18131       -0.15091        3.37169
H          5.71310        4.34040        2.68330
H          7.01820        6.10530        2.94670
H          8.43260        5.93910        4.02260
H          6.86300        6.71980        4.57310
H          7.41451        3.67197        8.54491
H          8.95297        4.69603       10.04794
H         10.72564        7.30713        9.96855
H         12.50480        4.84869        9.54120
H         12.76122        6.30914       10.65151
H         10.90302        6.64826        6.73421
H          9.35206        5.66676        5.21936
H          6.98540        2.18680        6.91880
H          5.97130        0.27390        6.50260
H          5.65930       -0.15500        4.80020
H          4.37010        0.58800        5.88560
H          3.73462        3.65972        1.88805
H          2.36545        2.53847        0.33430
46

C          0.86661       -0.64695        0.20877
C          2.11487       -0.22967       -0.04172
C          2.96625        0.53254        0.91381
C          3.79503       -0.18309        1.78328
C          4.59706        0.47705        2.71680
C          4.60670        1.89080        2.82450
C          5.47040        2.56410        3.88530
C          5.98520        3.84940        3.60460
C          6.83580        4.55300        4.47850
C          7.32340        5.90010        3.99500
C          7.23420        3.95170        5.70880
C          8.19970        4.56080        6.71420
C          8.13347        4.32675        8.10419
C          9.04122        4.91231        8.98966
C         10.05650        5.75855        8.52866
C         10.99205        6.35177        9.52372
C         10.94160        6.13894       10.84628
C         10.14384        6.00299        7.14917
C          9.23675        5.41545        6.26378
C          6.72170        2.66910        5.98930
C          5.85190        1.97490        5.12950
C          5.43340        0.59590        5.58580
C          3.77767        2.59575        1.92293
C          2.97408        1.93385        0.98959
H          0.32848       -1.20550       -0.55044
H          0.35897       -0.46161        1.14598
H          2.53509       -0.48072       -1.01210
H          3.81343       -1.26608        1.75280
H          5.18131       -0.15091        3.37169
H          5.71310        4.34040        2.68330
H          7.01820        6.10530        2.94670
H          8.43260        5.93910        4.02260
H          6.86300        6.71980        4.57310
H          7.41451        3.67197        8.54491
H          8.95297        4.69603       10.04794
H         11.77758        7.00799        9.15786
H         10.20103        5.50676       11.31486
H         11.67172        6.61919       11.49101
H         10.90302        6.64826        6.73421
H          9.35206        5.66676        5.21936
H          6.98540        2.18680        6.91880
H          5.97130        0.27390        6.50260
H          5.65930       -0.15500        4.80020
H          4.37010        0.58800        5.88560
H          3.73462        3.65972        1.88805
H          2.36545        2.53847        0.33430
46

C          2.04562        0.70238       -1.55094
C          2.28049        0.09277       -0.38122
C          3.05684        0.68146        0.74553
C          3.58765        1.96542        0.58844
C          4.34434        2.55846        1.60148
C          4.60670        1.89080        2.82450
C          5.47040        2.56410        3.88530
C          5.98520        3.84940        3.60460
C          6.83580        4.55300        4.47850
C          7.32340        5.90010        3.99500
C          7.23420        3.95170        5.70880
C          8.19970        4.56080        6.71420
C          8.82318        5.81471        6.54041
C          9.70670        6.33145        7.49083
C         10.00882        5.62042        8.65813
C         10.95888        6.22589        9.63183
C         10.60859        7.02122       10.65249
C          9.39745        4.37213        8.85397
C          8.51229        3.85667        7.90385
C          6.72170        2.66910        5.98930
C          5.85190        1.97490        5.12950
C          5.43340        0.59590        5.58580
C          4.04400        0.60279        2.97104
C          3.28769        0.00941        1.95570
H          1.45920        0.19352       -2.30932
H          2.40789        1.69510       -1.78263
H          1.85926       -0.90017       -0.24744
H          3.42965        2.51284       -0.33324
H          4.74457        3.53728        1.38635
H          5.71310        4.34040        2.68330
H          7.01820        6.10530        2.94670
H          8.43260        5.93910        4.02260
H          6.86300        6.71980        4.57310
H          8.63058        6.44255        5.69861
H         10.15490        7.30235        7.31472
H         12.01785        6.01166        9.51246
H          9.58525        7.29919       10.86030
H         11.37866        7.41440       11.30960
H          9.59275        3.77624        9.73243
H          8.09736        2.88106        8.11192
H          6.98540        2.18680        6.91880
H          5.97130        0.27390        6.50260
H          5.65930       -0.15500        4.80020
H          4.37010        0.58800        5.88560
H          4.14379        0.02602        3.86125
H          2.89087       -0.97780        2.13831
46

C          0.86661       -0.64695        0.20877
C          2.11487       -0.22967       -0.04172
C          2.96625        0.53254        0.91381
C          3.79503       -0.18309        1.78328
C          4.59706        0.47705        2.71680
C          4.60670        1.89080        2.82450
C          5.47040        2.56410        3.88530
C          5.98520        3.84940        3.60460
C          6.83580        4.55300        4.47850
C          7.32340        5.90010        3.99500
C          7.23420        3.95170        5.70880
C          8.19970        4.56080        6.71420
C          8.36224        5.95000        6.90109
C          9.26539        6.46272        7.83510
C         10.04800        5.61263        8.62522
C         10.99231        6.22179        9.60221
C         10.69406        6.51843       10.87502
C          9.90054        4.22664        8.45898
C          8.99559        3.71438        7.52594
C          6.72170        2.66910        5.98930
C          5.85190        1.97490        5.12950
C          5.43340        0.59590        5.58580
C          3.77767        2.59575        1.92293
C          2.97408        1.93385        0.98959
H          0.32848       -1.20550       -0.55044
H          0.35897       -0.46161        1.14598
H          2.53509       -0.48072       -1.01210
H          3.81343       -1.26608        1.75280
H          5.18131       -0.15091        3.37169
H          5.71310        4.34040        2.68330
H          7.01820        6.10530        2.94670
H          8.43260        5.93910        4.02260
H          6.86300        6.71980        4.57310
H          7.78737        6.67457        6.36778
H          9.34889        7.53753        7.94628
H         12.00121        6.44589        9.26537
H          9.72166        6.33920       11.31089
H         11.45470        6.96224       11.51051
H         10.47780        3.52123        9.03700
H          8.95224        2.63844        7.43796
H          6.98540        2.18680        6.91880
H          5.97130        0.27390        6.50260
H          5.65930       -0.15500        4.80020
H          4.37010        0.58800        5.88560
H          3.73462        3.65972        1.88805
H          2.36545        2.53847        0.33430
