
 OpenBabel08122213053D

 19 19  0  0  0  0  0  0  0  0999 V2000
    2.8686   -0.1302   -1.4111 C   0  0  0  0  0  0  0  0  0  0  0  0
    2.4742    0.0605   -0.1439 C   0  0  0  0  0  0  0  0  0  0  0  0
    3.1762    0.9215    0.8197 C   0  0  0  0  0  0  0  0  0  0  0  0
    2.6790    1.0755    2.1114 C   0  0  0  0  0  0  0  0  0  0  0  0
    3.3469    1.9177    3.0061 C   0  0  0  0  0  0  0  0  0  0  0  0
    2.9108    2.1212    4.3948 C   0  0  0  0  0  0  0  0  0  0  0  0
    1.6535    2.0826    4.8500 C   0  0  0  0  0  0  0  0  0  0  0  0
    0.6098    1.8450    4.0289 F   0  0  0  0  0  0  0  0  0  0  0  0
    1.4264    2.3055    6.1616 F   0  0  0  0  0  0  0  0  0  0  0  0
    4.5144    2.5483    2.5727 C   0  0  0  0  0  0  0  0  0  0  0  0
    4.9428    2.3347    1.2742 C   0  0  0  0  0  0  0  0  0  0  0  0
    4.3000    1.5422    0.3942 N   0  0  0  0  0  0  0  0  0  0  0  0
    2.3062   -0.7720   -2.0800 H   0  0  0  0  0  0  0  0  0  0  0  0
    3.7574    0.3515   -1.8088 H   0  0  0  0  0  0  0  0  0  0  0  0
    1.5776   -0.4388    0.2107 H   0  0  0  0  0  0  0  0  0  0  0  0
    1.7839    0.5403    2.4108 H   0  0  0  0  0  0  0  0  0  0  0  0
    3.6938    2.3451    5.1138 H   0  0  0  0  0  0  0  0  0  0  0  0
    5.0857    3.2039    3.2219 H   0  0  0  0  0  0  0  0  0  0  0  0
    5.8427    2.8101    0.8945 H   0  0  0  0  0  0  0  0  0  0  0  0
  1  2  2  0  0  0  0
  1 13  1  0  0  0  0
  1 14  1  0  0  0  0
  2  3  1  0  0  0  0
  2 15  1  0  0  0  0
  3  4  1  0  0  0  0
  3 12  2  0  0  0  0
  4  5  2  0  0  0  0
  4 16  1  0  0  0  0
  5  6  1  0  0  0  0
  5 10  1  0  0  0  0
  6  7  2  0  0  0  0
  6 17  1  0  0  0  0
  7  8  1  0  0  0  0
  7  9  1  0  0  0  0
 10 11  2  0  0  0  0
 10 18  1  0  0  0  0
 11 12  1  0  0  0  0
 11 19  1  0  0  0  0
M  END
