  19

 C          1.5157400000        0.4883300000       -0.9781900000
 C          2.4742000000        0.0605000000       -0.1439000000
 C          3.1762000000        0.9215000000        0.8197000000
 C          2.6790000000        1.0755000000        2.1114000000
 C          3.3469000000        1.9177000000        3.0061000000
 C          2.9108000000        2.1212000000        4.3948000000
 C          2.0633100000        3.0575500000        4.8358200000
 F          1.5027800000        3.9559700000        3.9999900000
 F          1.7787100000        3.1124800000        6.1539800000
 C          4.5144000000        2.5483000000        2.5727000000
 C          4.9428000000        2.3347000000        1.2742000000
 N          4.3000000000        1.5422000000        0.3942000000
 H          1.0268000000       -0.1948500000       -1.6636300000
 H          1.1964200000        1.5265900000       -0.9930500000
 H          2.7599400000       -0.9868800000       -0.1609400000
 H          1.7839000000        0.5403000000        2.4108000000
 H          3.3411500000        1.4514600000        5.1340100000
 H          5.0857000000        3.2039000000        3.2219000000
 H          5.8427000000        2.8101000000        0.8945000000
