
  xtb     02032210513D
 xtb: 6.4.1 (23d549d)
 24 24  0     0  0            999 V2000
    1.5962    0.1763    0.5264 c   0  0  0  0  0  0  0  0  0  0  0  0
    2.4966   -0.3303   -0.3066 c   0  0  0  0  0  0  0  0  0  0  0  0
    3.1896    0.3741   -1.3811 c   0  0  0  0  0  0  0  0  0  0  0  0
    4.2542   -0.2621   -2.0112 c   0  0  0  0  0  0  0  0  0  0  0  0
    4.9567    0.3670   -3.0382 c   0  0  0  0  0  0  0  0  0  0  0  0
    6.0824   -0.2440   -3.7298 c   0  0  0  0  0  0  0  0  0  0  0  0
    6.6084   -1.4458   -3.5502 c   0  0  0  0  0  0  0  0  0  0  0  0
    6.2328   -2.3882   -2.6933 f   0  0  0  0  0  0  0  0  0  0  0  0
    7.6488   -1.8959   -4.2512 f   0  0  0  0  0  0  0  0  0  0  0  0
    4.5724    1.6445   -3.4321 c   0  0  0  0  0  0  0  0  0  0  0  0
    3.5023    2.2900   -2.8159 c   0  0  0  0  0  0  0  0  0  0  0  0
    3.2152    3.5331   -3.2920 o   0  0  0  0  0  0  0  0  0  0  0  0
    2.1507    4.2478   -2.7135 c   0  0  0  0  0  0  0  0  0  0  0  0
    2.8143    1.6545   -1.7924 c   0  0  0  0  0  0  0  0  0  0  0  0
    1.1437   -0.4277    1.2938 h   0  0  0  0  0  0  0  0  0  0  0  0
    1.2767    1.2039    0.4914 h   0  0  0  0  0  0  0  0  0  0  0  0
    2.7833   -1.3687   -0.1974 h   0  0  0  0  0  0  0  0  0  0  0  0
    4.5334   -1.2508   -1.6868 h   0  0  0  0  0  0  0  0  0  0  0  0
    6.5581    0.3542   -4.4930 h   0  0  0  0  0  0  0  0  0  0  0  0
    5.0903    2.1607   -4.2248 h   0  0  0  0  0  0  0  0  0  0  0  0
    2.1113    5.1976   -3.2445 h   0  0  0  0  0  0  0  0  0  0  0  0
    2.3243    4.4370   -1.6490 h   0  0  0  0  0  0  0  0  0  0  0  0
    1.1974    3.7242   -2.8405 h   0  0  0  0  0  0  0  0  0  0  0  0
    1.9792    2.1358   -1.3122 h   0  0  0  0  0  0  0  0  0  0  0  0
  1  2  2  0  0  0  0
  2  3  1  0  0  0  0
  3  4  4  0  0  0  0
  4  5  4  0  0  0  0
  5  6  1  0  0  0  0
  6  7  2  0  0  0  0
  7  8  1  0  0  0  0
  7  9  1  0  0  0  0
  5 10  4  0  0  0  0
 10 11  4  0  0  0  0
 11 12  1  0  0  0  0
 12 13  1  0  0  0  0
  3 14  4  0  0  0  0
 11 14  4  0  0  0  0
  1 15  1  0  0  0  0
  1 16  1  0  0  0  0
  2 17  1  0  0  0  0
  4 18  1  0  0  0  0
  6 19  1  0  0  0  0
 10 20  1  0  0  0  0
 13 21  1  0  0  0  0
 13 22  1  0  0  0  0
 13 23  1  0  0  0  0
 14 24  1  0  0  0  0
M  END
