
 OpenBabel02012214073D

 24 24  0  0  0  0  0  0  0  0999 V2000
   -2.5559   -0.8044   -0.0776 C   0  0  0  0  0  0  0  0  0  0  0  0
   -1.2394   -0.0730   -0.0305 C   0  0  0  0  0  0  0  0  0  0  0  0
   -1.2512    1.3358   -0.0049 C   0  0  0  0  0  0  0  0  0  0  0  0
   -0.0677    2.0582    0.0763 C   0  0  0  0  0  0  0  0  0  0  0  0
    0.0614    3.4103    0.1407 O   0  0  0  0  0  0  0  0  0  0  0  0
   -0.9914    4.1912    0.6799 C   0  0  0  0  0  0  0  0  0  0  0  0
   -1.8771    3.4897    1.4179 F   0  0  0  0  0  0  0  0  0  0  0  0
   -0.4497    5.1358    1.4839 F   0  0  0  0  0  0  0  0  0  0  0  0
   -1.6494    4.8188   -0.3188 F   0  0  0  0  0  0  0  0  0  0  0  0
    1.1437    1.3671    0.0477 C   0  0  0  0  0  0  0  0  0  0  0  0
    1.1883   -0.0354   -0.0051 C   0  0  0  0  0  0  0  0  0  0  0  0
    2.5331   -0.7113   -0.0525 C   0  0  0  0  0  0  0  0  0  0  0  0
   -0.0111   -0.7691    0.0159 C   0  0  0  0  0  0  0  0  0  0  0  0
    0.0144   -2.1657   -0.1504 N   0  0  0  0  0  0  0  0  0  0  0  0
   -3.4042   -0.1120   -0.0939 H   0  0  0  0  0  0  0  0  0  0  0  0
   -2.6686   -1.4339    0.8119 H   0  0  0  0  0  0  0  0  0  0  0  0
   -2.6176   -1.4251   -0.9766 H   0  0  0  0  0  0  0  0  0  0  0  0
   -2.2110    1.8450   -0.0629 H   0  0  0  0  0  0  0  0  0  0  0  0
    2.0719    1.9354    0.0586 H   0  0  0  0  0  0  0  0  0  0  0  0
    3.3513    0.0167   -0.0738 H   0  0  0  0  0  0  0  0  0  0  0  0
    2.6213   -1.3296   -0.9525 H   0  0  0  0  0  0  0  0  0  0  0  0
    2.6740   -1.3351    0.8358 H   0  0  0  0  0  0  0  0  0  0  0  0
    0.8569   -2.6109    0.1960 H   0  0  0  0  0  0  0  0  0  0  0  0
   -0.8151   -2.6411    0.1821 H   0  0  0  0  0  0  0  0  0  0  0  0
  1  2  1  0  0  0  0
  1 15  1  0  0  0  0
  1 16  1  0  0  0  0
  1 17  1  0  0  0  0
  2  3  1  0  0  0  0
  2 13  2  0  0  0  0
  3  4  2  0  0  0  0
  3 18  1  0  0  0  0
  4  5  1  0  0  0  0
  4 10  1  0  0  0  0
  5  6  1  0  0  0  0
  6  7  1  0  0  0  0
  6  8  1  0  0  0  0
  6  9  1  0  0  0  0
 10 11  2  0  0  0  0
 10 19  1  0  0  0  0
 11 12  1  0  0  0  0
 11 13  1  0  0  0  0
 12 20  1  0  0  0  0
 12 21  1  0  0  0  0
 12 22  1  0  0  0  0
 13 14  1  0  0  0  0
 14 23  1  0  0  0  0
 14 24  1  0  0  0  0
M  END
