
  xtb     02012213593D
 xtb: 6.4.1 (23d549d)
 18 18  0     0  0            999 V2000
    1.0398    0.0362    0.0548 c   0  0  0  0  0  0  0  0  0  0  0  0
    2.5306    0.1043    0.0639 c   0  0  0  0  0  0  0  0  0  0  0  0
    3.2459    1.2568    0.0706 c   0  0  0  0  0  0  0  0  0  0  0  0
    4.9437    0.9763    0.0804 s   0  0  0  0  0  0  0  0  0  0  0  0
    4.6959   -0.7424    0.0753 c   0  0  0  0  0  0  0  0  0  0  0  0
    5.8699   -1.6610    0.0806 c   0  0  0  0  0  0  0  0  0  0  0  0
    3.3697   -1.0529    0.0666 c   0  0  0  0  0  0  0  0  0  0  0  0
    2.8208   -2.4427    0.0603 c   0  0  0  0  0  0  0  0  0  0  0  0
    0.6126    1.0359    0.0541 h   0  0  0  0  0  0  0  0  0  0  0  0
    0.6786   -0.4989    0.9327 h   0  0  0  0  0  0  0  0  0  0  0  0
    0.6892   -0.4956   -0.8295 h   0  0  0  0  0  0  0  0  0  0  0  0
    2.8809    2.2648    0.0705 h   0  0  0  0  0  0  0  0  0  0  0  0
    6.7928   -1.0867    0.0874 h   0  0  0  0  0  0  0  0  0  0  0  0
    5.8657   -2.2986   -0.8040 h   0  0  0  0  0  0  0  0  0  0  0  0
    5.8550   -2.3020    0.9627 h   0  0  0  0  0  0  0  0  0  0  0  0
    3.6209   -3.1771    0.0637 h   0  0  0  0  0  0  0  0  0  0  0  0
    2.2049   -2.6015   -0.8247 h   0  0  0  0  0  0  0  0  0  0  0  0
    2.1940   -2.6052    0.9370 h   0  0  0  0  0  0  0  0  0  0  0  0
  1  2  1  0  0  0  0
  2  3  2  0  0  0  0
  3  4  1  0  0  0  0
  4  5  1  0  0  0  0
  5  6  1  0  0  0  0
  2  7  4  0  0  0  0
  5  7  2  0  0  0  0
  7  8  1  0  0  0  0
  1  9  1  0  0  0  0
  1 10  1  0  0  0  0
  1 11  1  0  0  0  0
  3 12  1  0  0  0  0
  6 13  1  0  0  0  0
  6 14  1  0  0  0  0
  6 15  1  0  0  0  0
  8 16  1  0  0  0  0
  8 17  1  0  0  0  0
  8 18  1  0  0  0  0
M  END
