
  xtb     02032210523D
 xtb: 6.4.1 (23d549d)
 23 24  0     0  0            999 V2000
    2.8278    0.9431   -0.2673 c   0  0  0  0  0  0  0  0  0  0  0  0
    2.4116   -0.3168   -0.2328 c   0  0  0  0  0  0  0  0  0  0  0  0
    3.0321   -1.4192    0.4956 c   0  0  0  0  0  0  0  0  0  0  0  0
    2.5778   -2.7260    0.2292 c   0  0  0  0  0  0  0  0  0  0  0  0
    3.1003   -3.8370    0.8540 c   0  0  0  0  0  0  0  0  0  0  0  0
    4.1085   -3.6237    1.7810 c   0  0  0  0  0  0  0  0  0  0  0  0
    4.7685   -4.5448    2.5156 o   0  0  0  0  0  0  0  0  0  0  0  0
    5.6654   -3.8608    3.2864 c   0  0  0  0  0  0  0  0  0  0  0  0
    6.4923   -4.6537    4.1556 c   0  0  0  0  0  0  0  0  0  0  0  0
    7.4200   -4.1825    4.9792 c   0  0  0  0  0  0  0  0  0  0  0  0
    7.7481   -2.9081    5.1505 f   0  0  0  0  0  0  0  0  0  0  0  0
    8.1681   -4.9449    5.7675 f   0  0  0  0  0  0  0  0  0  0  0  0
    5.5932   -2.5139    3.0621 c   0  0  0  0  0  0  0  0  0  0  0  0
    4.5809   -2.3271    2.0783 c   0  0  0  0  0  0  0  0  0  0  0  0
    4.0378   -1.2217    1.4311 c   0  0  0  0  0  0  0  0  0  0  0  0
    2.3032    1.6890   -0.8392 h   0  0  0  0  0  0  0  0  0  0  0  0
    3.7022    1.2842    0.2599 h   0  0  0  0  0  0  0  0  0  0  0  0
    1.5340   -0.5933   -0.8049 h   0  0  0  0  0  0  0  0  0  0  0  0
    1.7913   -2.8582   -0.4994 h   0  0  0  0  0  0  0  0  0  0  0  0
    2.7444   -4.8315    0.6379 h   0  0  0  0  0  0  0  0  0  0  0  0
    6.3391   -5.7210    4.1278 h   0  0  0  0  0  0  0  0  0  0  0  0
    6.1830   -1.7556    3.5337 h   0  0  0  0  0  0  0  0  0  0  0  0
    4.3952   -0.2328    1.6682 h   0  0  0  0  0  0  0  0  0  0  0  0
  1  2  2  0  0  0  0
  2  3  1  0  0  0  0
  3  4  4  0  0  0  0
  4  5  4  0  0  0  0
  5  6  4  0  0  0  0
  6  7  1  0  0  0  0
  7  8  1  0  0  0  0
  8  9  1  0  0  0  0
  9 10  2  0  0  0  0
 10 11  1  0  0  0  0
 10 12  1  0  0  0  0
  8 13  2  0  0  0  0
  6 14  4  0  0  0  0
 13 14  4  0  0  0  0
  3 15  4  0  0  0  0
 14 15  4  0  0  0  0
  1 16  1  0  0  0  0
  1 17  1  0  0  0  0
  2 18  1  0  0  0  0
  4 19  1  0  0  0  0
  5 20  1  0  0  0  0
  9 21  1  0  0  0  0
 13 22  1  0  0  0  0
 15 23  1  0  0  0  0
M  END
