
  xtb     02032211353D
 xtb: 6.4.1 (23d549d)
 28 29  0     0  0            999 V2000
    4.5766   -0.0205    2.0963 C   0  0  0  0  0  0  0  0  0  0  0  0
    3.2996   -0.1686    1.7682 C   0  0  0  0  0  0  0  0  0  0  0  0
    2.6890    0.1517    0.4815 C   0  0  0  0  0  0  0  0  0  0  0  0
    3.3922    0.6772   -0.6070 C   0  0  0  0  0  0  0  0  0  0  0  0
    2.7023    0.9483   -1.7741 C   0  0  0  0  0  0  0  0  0  0  0  0
    1.3445    0.6841   -1.8349 C   0  0  0  0  0  0  0  0  0  0  0  0
    0.7226    0.1516   -0.7037 C   0  0  0  0  0  0  0  0  0  0  0  0
   -0.7224   -0.1530   -0.7037 C   0  0  0  0  0  0  0  0  0  0  0  0
   -1.3449   -0.6839   -1.8354 C   0  0  0  0  0  0  0  0  0  0  0  0
   -2.7029   -0.9470   -1.7747 C   0  0  0  0  0  0  0  0  0  0  0  0
   -3.3925   -0.6763   -0.6073 C   0  0  0  0  0  0  0  0  0  0  0  0
   -2.6887   -0.1527    0.4818 C   0  0  0  0  0  0  0  0  0  0  0  0
   -3.2988    0.1667    1.7689 C   0  0  0  0  0  0  0  0  0  0  0  0
   -4.5769    0.0242    2.0954 C   0  0  0  0  0  0  0  0  0  0  0  0
   -1.3840    0.0960    0.4150 N   0  0  0  0  0  0  0  0  0  0  0  0
    1.3845   -0.0983    0.4146 N   0  0  0  0  0  0  0  0  0  0  0  0
    4.9358   -0.2844    3.0764 H   0  0  0  0  0  0  0  0  0  0  0  0
    5.3159    0.3655    1.4147 H   0  0  0  0  0  0  0  0  0  0  0  0
    2.5908   -0.5599    2.4849 H   0  0  0  0  0  0  0  0  0  0  0  0
    4.4502    0.8730   -0.5399 H   0  0  0  0  0  0  0  0  0  0  0  0
    3.2163    1.3644   -2.6295 H   0  0  0  0  0  0  0  0  0  0  0  0
    0.7763    0.9048   -2.7254 H   0  0  0  0  0  0  0  0  0  0  0  0
   -0.7770   -0.9042   -2.7262 H   0  0  0  0  0  0  0  0  0  0  0  0
   -3.2174   -1.3618   -2.6305 H   0  0  0  0  0  0  0  0  0  0  0  0
   -4.4507   -0.8713   -0.5403 H   0  0  0  0  0  0  0  0  0  0  0  0
   -2.5887    0.5527    2.4872 H   0  0  0  0  0  0  0  0  0  0  0  0
   -5.3175   -0.3559    1.4119 H   0  0  0  0  0  0  0  0  0  0  0  0
   -4.9356    0.2871    3.0758 H   0  0  0  0  0  0  0  0  0  0  0  0
  1  2  2  0  0  0  0
  2  3  1  0  0  0  0
  3  4  4  0  0  0  0
  4  5  4  0  0  0  0
  5  6  4  0  0  0  0
  6  7  4  0  0  0  0
  7  8  1  0  0  0  0
  8  9  4  0  0  0  0
  9 10  4  0  0  0  0
 10 11  4  0  0  0  0
 11 12  4  0  0  0  0
 12 13  1  0  0  0  0
 13 14  2  0  0  0  0
  8 15  4  0  0  0  0
 12 15  4  0  0  0  0
  3 16  4  0  0  0  0
  7 16  4  0  0  0  0
  1 17  1  0  0  0  0
  1 18  1  0  0  0  0
  2 19  1  0  0  0  0
  4 20  1  0  0  0  0
  5 21  1  0  0  0  0
  6 22  1  0  0  0  0
  9 23  1  0  0  0  0
 10 24  1  0  0  0  0
 11 25  1  0  0  0  0
 13 26  1  0  0  0  0
 14 27  1  0  0  0  0
 14 28  1  0  0  0  0
M  END
