 xtb: 6.5.0 (unknown)
          08122213083D

 19  0  0     0  0            999 V2000
   -3.6252   -2.2100   -0.0104 C   0  0  0  0  0  0  0  0  0  0  0  0
   -3.4727   -0.8920    0.0029 C   0  0  0  0  0  0  0  0  0  0  0  0
   -2.2096   -0.1609    0.0016 C   0  0  0  0  0  0  0  0  0  0  0  0
   -0.9571   -0.7743   -0.0032 C   0  0  0  0  0  0  0  0  0  0  0  0
    0.1977    0.0064   -0.0037 C   0  0  0  0  0  0  0  0  0  0  0  0
    1.4879   -0.6679   -0.0081 C   0  0  0  0  0  0  0  0  0  0  0  0
    2.6945   -0.1213   -0.0004 C   0  0  0  0  0  0  0  0  0  0  0  0
    3.0066    1.1663    0.0130 F   0  0  0  0  0  0  0  0  0  0  0  0
    3.8151   -0.8369   -0.0050 F   0  0  0  0  0  0  0  0  0  0  0  0
    0.0416    1.3947   -0.0001 C   0  0  0  0  0  0  0  0  0  0  0  0
   -1.2455    1.9083    0.0047 C   0  0  0  0  0  0  0  0  0  0  0  0
   -2.3348    1.1677    0.0059 N   0  0  0  0  0  0  0  0  0  0  0  0
   -4.6040   -2.6577   -0.0084 H   0  0  0  0  0  0  0  0  0  0  0  0
   -2.7959   -2.8971   -0.0239 H   0  0  0  0  0  0  0  0  0  0  0  0
   -4.3367   -0.2419    0.0151 H   0  0  0  0  0  0  0  0  0  0  0  0
   -0.8761   -1.8497   -0.0056 H   0  0  0  0  0  0  0  0  0  0  0  0
    1.4685   -1.7483   -0.0180 H   0  0  0  0  0  0  0  0  0  0  0  0
    0.8875    2.0604   -0.0011 H   0  0  0  0  0  0  0  0  0  0  0  0
   -1.4110    2.9779    0.0078 H   0  0  0  0  0  0  0  0  0  0  0  0
M  END
