
  xtb     02032211353D
 xtb: 6.4.1 (23d549d)
 20 20  0     0  0            999 V2000
   -3.5769    1.2983   -0.0005 C   0  0  0  0  0  0  0  0  0  0  0  0
   -2.8886    0.1623    0.0068 C   0  0  0  0  0  0  0  0  0  0  0  0
   -1.4393    0.0355    0.0026 C   0  0  0  0  0  0  0  0  0  0  0  0
   -0.5621    1.1198   -0.0020 C   0  0  0  0  0  0  0  0  0  0  0  0
    0.8037    0.9351   -0.0059 C   0  0  0  0  0  0  0  0  0  0  0  0
    1.5614    2.0525   -0.0124 F   0  0  0  0  0  0  0  0  0  0  0  0
    1.4017   -0.3302   -0.0060 C   0  0  0  0  0  0  0  0  0  0  0  0
    2.8321   -0.5991   -0.0107 C   0  0  0  0  0  0  0  0  0  0  0  0
    3.8264    0.2822    0.0230 C   0  0  0  0  0  0  0  0  0  0  0  0
    0.5206   -1.4154   -0.0029 C   0  0  0  0  0  0  0  0  0  0  0  0
   -0.8432   -1.2299    0.0023 C   0  0  0  0  0  0  0  0  0  0  0  0
   -1.6287   -2.3288    0.0062 F   0  0  0  0  0  0  0  0  0  0  0  0
   -4.6528    1.2942    0.0030 H   0  0  0  0  0  0  0  0  0  0  0  0
   -3.1088    2.2675   -0.0104 H   0  0  0  0  0  0  0  0  0  0  0  0
   -3.4217   -0.7792    0.0159 H   0  0  0  0  0  0  0  0  0  0  0  0
   -0.9387    2.1296   -0.0026 H   0  0  0  0  0  0  0  0  0  0  0  0
    3.0713   -1.6552   -0.0426 H   0  0  0  0  0  0  0  0  0  0  0  0
    3.6753    1.3454    0.0589 H   0  0  0  0  0  0  0  0  0  0  0  0
    4.8508   -0.0501    0.0161 H   0  0  0  0  0  0  0  0  0  0  0  0
    0.9074   -2.4230   -0.0034 H   0  0  0  0  0  0  0  0  0  0  0  0
  1  2  2  0  0  0  0
  2  3  1  0  0  0  0
  3  4  4  0  0  0  0
  4  5  4  0  0  0  0
  5  6  1  0  0  0  0
  5  7  4  0  0  0  0
  7  8  1  0  0  0  0
  8  9  2  0  0  0  0
  7 10  4  0  0  0  0
  3 11  4  0  0  0  0
 10 11  4  0  0  0  0
 11 12  1  0  0  0  0
  1 13  1  0  0  0  0
  1 14  1  0  0  0  0
  2 15  1  0  0  0  0
  4 16  1  0  0  0  0
  8 17  1  0  0  0  0
  9 18  1  0  0  0  0
  9 19  1  0  0  0  0
 10 20  1  0  0  0  0
M  END
