22

C          2.72324        0.06474        1.31285
C          2.46830       -0.05380        0.00420
C          3.18410       -1.01560       -0.86480
C          2.88590       -1.08430       -2.22520
C          3.54940       -1.99800       -3.07660
C          3.14940       -2.01300       -4.53630
O          2.73815       -1.00776       -5.08391
O          3.24564       -3.12526       -5.30434
C          4.55100       -2.85720       -2.49600
C          5.35430       -3.85240       -3.29720
C          5.24439       -4.06222       -4.61945
C          4.80210       -2.73060       -1.10860
N          4.12660       -1.83630       -0.34930
H          2.17123        0.78464        1.90712
H          3.47556       -0.54532        1.80346
H          1.70342        0.58439       -0.42980
H          2.11610       -0.42410       -2.59050
H          3.47361       -4.00554       -4.98631
H          6.08162       -4.48932       -2.82978
H          4.56006       -3.53336       -5.26542
H          5.87081       -4.81344       -5.09148
H          5.53300       -3.33320       -0.59920
22

C          1.52521        0.77490       -0.45997
C          2.46830       -0.05380        0.00420
C          3.18410       -1.01560       -0.86480
C          2.88590       -1.08430       -2.22520
C          3.54940       -1.99800       -3.07660
C          3.14940       -2.01300       -4.53630
O          3.21731       -3.03369       -5.19439
O          2.68243       -0.91158       -5.17275
C          4.55100       -2.85720       -2.49600
C          5.35430       -3.85240       -3.29720
C          5.24439       -4.06222       -4.61945
C          4.80210       -2.73060       -1.10860
N          4.12660       -1.83630       -0.34930
H          1.02951        1.46172        0.21729
H          1.23762        0.78012       -1.50693
H          2.71305       -0.01212        1.06205
H          2.11610       -0.42410       -2.59050
H          2.65431       -0.02259       -4.80273
H          6.08162       -4.48932       -2.82978
H          4.56006       -3.53336       -5.26542
H          5.87081       -4.81344       -5.09148
H          5.53300       -3.33320       -0.59920
22

C          1.52521        0.77490       -0.45997
C          2.46830       -0.05380        0.00420
C          3.18410       -1.01560       -0.86480
C          2.88590       -1.08430       -2.22520
C          3.54940       -1.99800       -3.07660
C          3.14940       -2.01300       -4.53630
O          3.21731       -3.03369       -5.19439
O          2.68243       -0.91158       -5.17275
C          4.55100       -2.85720       -2.49600
C          5.35430       -3.85240       -3.29720
C          6.53421       -3.60771       -3.89082
C          4.80210       -2.73060       -1.10860
N          4.12660       -1.83630       -0.34930
H          1.02951        1.46172        0.21729
H          1.23762        0.78012       -1.50693
H          2.71305       -0.01212        1.06205
H          2.11610       -0.42410       -2.59050
H          2.65431       -0.02259       -4.80273
H          5.00284       -4.85427       -3.45807
H          7.04696       -2.65831       -3.85894
H          7.02089       -4.40055       -4.45125
H          5.53300       -3.33320       -0.59920
22

C          1.33524       -0.36504        0.64522
C          2.46830       -0.05380        0.00420
C          3.18410       -1.01560       -0.86480
C          2.88590       -1.08430       -2.22520
C          3.54940       -1.99800       -3.07660
C          3.14940       -2.01300       -4.53630
O          2.02014       -1.71931       -4.87984
O          4.02034       -2.33016       -5.52480
C          4.55100       -2.85720       -2.49600
C          5.35430       -3.85240       -3.29720
C          6.60871       -4.24665       -3.02247
C          4.80210       -2.73060       -1.10860
N          4.12660       -1.83630       -0.34930
H          0.84827        0.37512        1.27063
H          0.88350       -1.34843        0.55723
H          2.87185        0.94704        0.13127
H          2.11610       -0.42410       -2.59050
H          4.91570       -2.66116       -5.39530
H          4.95434       -4.31033       -4.18234
H          7.18942       -3.89107       -2.18484
H          7.09424       -4.96549       -3.67598
H          5.53300       -3.33320       -0.59920
22

C          1.33524       -0.36504        0.64522
C          2.46830       -0.05380        0.00420
C          3.18410       -1.01560       -0.86480
C          2.88590       -1.08430       -2.22520
C          3.54940       -1.99800       -3.07660
C          3.14940       -2.01300       -4.53630
O          3.95081       -2.30679       -5.40286
O          1.89102       -1.72383       -4.94753
C          4.55100       -2.85720       -2.49600
C          5.35430       -3.85240       -3.29720
C          6.28709       -4.68306       -2.80286
C          4.80210       -2.73060       -1.10860
N          4.12660       -1.83630       -0.34930
H          0.84827        0.37512        1.27063
H          0.88350       -1.34843        0.55723
H          2.87185        0.94704        0.13127
H          2.11610       -0.42410       -2.59050
H          1.18111       -1.39597       -4.38492
H          5.23005       -3.94491       -4.35981
H          6.56872       -4.73254       -1.76194
H          6.81082       -5.35441       -3.47705
H          5.53300       -3.33320       -0.59920
22

C          2.91087        1.19063        0.22128
C          2.46830       -0.05380        0.00420
C          3.18410       -1.01560       -0.86480
C          2.88590       -1.08430       -2.22520
C          3.54940       -1.99800       -3.07660
C          3.14940       -2.01300       -4.53630
O          3.95081       -2.30679       -5.40286
O          1.89102       -1.72383       -4.94753
C          4.55100       -2.85720       -2.49600
C          5.35430       -3.85240       -3.29720
C          5.84007       -5.01692       -2.83635
C          4.80210       -2.73060       -1.10860
N          4.12660       -1.83630       -0.34930
H          2.35024        1.85784        0.86675
H          3.82532        1.55700       -0.23527
H          1.54657       -0.36295        0.48952
H          2.11610       -0.42410       -2.59050
H          1.18111       -1.39597       -4.38492
H          5.60759       -3.66865       -4.32444
H          5.70651       -5.37600       -1.82714
H          6.41407       -5.65358       -3.50322
H          5.53300       -3.33320       -0.59920
22

C          1.52521        0.77490       -0.45997
C          2.46830       -0.05380        0.00420
C          3.18410       -1.01560       -0.86480
C          2.88590       -1.08430       -2.22520
C          3.54940       -1.99800       -3.07660
C          3.14940       -2.01300       -4.53630
O          3.95081       -2.30679       -5.40286
O          1.89102       -1.72383       -4.94753
C          4.55100       -2.85720       -2.49600
C          5.35430       -3.85240       -3.29720
C          6.60871       -4.24665       -3.02247
C          4.80210       -2.73060       -1.10860
N          4.12660       -1.83630       -0.34930
H          1.02951        1.46172        0.21729
H          1.23762        0.78012       -1.50693
H          2.71305       -0.01212        1.06205
H          2.11610       -0.42410       -2.59050
H          1.18111       -1.39597       -4.38492
H          4.95434       -4.31033       -4.18234
H          7.18942       -3.89107       -2.18484
H          7.09424       -4.96549       -3.67598
H          5.53300       -3.33320       -0.59920
22

C          2.91087        1.19063        0.22128
C          2.46830       -0.05380        0.00420
C          3.18410       -1.01560       -0.86480
C          2.88590       -1.08430       -2.22520
C          3.54940       -1.99800       -3.07660
C          3.14940       -2.01300       -4.53630
O          2.02014       -1.71931       -4.87984
O          4.02034       -2.33016       -5.52480
C          4.55100       -2.85720       -2.49600
C          5.35430       -3.85240       -3.29720
C          6.60871       -4.24665       -3.02247
C          4.80210       -2.73060       -1.10860
N          4.12660       -1.83630       -0.34930
H          2.35024        1.85784        0.86675
H          3.82532        1.55700       -0.23527
H          1.54657       -0.36295        0.48952
H          2.11610       -0.42410       -2.59050
H          4.91570       -2.66116       -5.39530
H          4.95434       -4.31033       -4.18234
H          7.18942       -3.89107       -2.18484
H          7.09424       -4.96549       -3.67598
H          5.53300       -3.33320       -0.59920
22

C          1.33524       -0.36504        0.64522
C          2.46830       -0.05380        0.00420
C          3.18410       -1.01560       -0.86480
C          2.88590       -1.08430       -2.22520
C          3.54940       -1.99800       -3.07660
C          3.14940       -2.01300       -4.53630
O          3.95081       -2.30679       -5.40286
O          1.89102       -1.72383       -4.94753
C          4.55100       -2.85720       -2.49600
C          5.35430       -3.85240       -3.29720
C          5.24439       -4.06222       -4.61945
C          4.80210       -2.73060       -1.10860
N          4.12660       -1.83630       -0.34930
H          0.84827        0.37512        1.27063
H          0.88350       -1.34843        0.55723
H          2.87185        0.94704        0.13127
H          2.11610       -0.42410       -2.59050
H          1.18111       -1.39597       -4.38492
H          6.08162       -4.48932       -2.82978
H          4.56006       -3.53336       -5.26542
H          5.87081       -4.81344       -5.09148
H          5.53300       -3.33320       -0.59920
22

C          1.33524       -0.36504        0.64522
C          2.46830       -0.05380        0.00420
C          3.18410       -1.01560       -0.86480
C          2.88590       -1.08430       -2.22520
C          3.54940       -1.99800       -3.07660
C          3.14940       -2.01300       -4.53630
O          2.02014       -1.71931       -4.87984
O          4.02034       -2.33016       -5.52480
C          4.55100       -2.85720       -2.49600
C          5.35430       -3.85240       -3.29720
C          5.01316       -5.13198       -3.52252
C          4.80210       -2.73060       -1.10860
N          4.12660       -1.83630       -0.34930
H          0.84827        0.37512        1.27063
H          0.88350       -1.34843        0.55723
H          2.87185        0.94704        0.13127
H          2.11610       -0.42410       -2.59050
H          4.91570       -2.66116       -5.39530
H          6.29554       -3.58446       -3.73927
H          4.11246       -5.59681       -3.15109
H          5.67491       -5.76221       -4.10939
H          5.53300       -3.33320       -0.59920
