
 OpenBabel02012213583D

 24 24  0  0  0  0  0  0  0  0999 V2000
    0.9192    0.1444    0.0852 C   0  0  0  0  0  0  0  0  0  0  0  0
    2.4405    0.0991    0.0670 C   0  0  0  0  0  0  0  0  0  0  0  0
    2.9777    0.0010   -1.3429 C   0  0  0  0  0  0  0  0  0  0  0  0
    3.2516    1.1933   -2.0416 C   0  0  0  0  0  0  0  0  0  0  0  0
    3.7144    1.1715   -3.3618 C   0  0  0  0  0  0  0  0  0  0  0  0
    4.0040    2.4430   -4.1017 C   0  0  0  0  0  0  0  0  0  0  0  0
    3.9043   -0.0603   -3.9918 C   0  0  0  0  0  0  0  0  0  0  0  0
    3.6351   -1.2498   -3.3129 C   0  0  0  0  0  0  0  0  0  0  0  0
    3.1714   -1.2371   -1.9887 C   0  0  0  0  0  0  0  0  0  0  0  0
    2.8943   -2.5453   -1.3018 C   0  0  0  0  0  0  0  0  0  0  0  0
    0.5536    0.1923    1.1158 H   0  0  0  0  0  0  0  0  0  0  0  0
    0.4836   -0.7420   -0.3869 H   0  0  0  0  0  0  0  0  0  0  0  0
    0.5438    1.0238   -0.4493 H   0  0  0  0  0  0  0  0  0  0  0  0
    2.7988   -0.7383    0.6751 H   0  0  0  0  0  0  0  0  0  0  0  0
    2.8379    0.9998    0.5512 H   0  0  0  0  0  0  0  0  0  0  0  0
    3.0942    2.1489   -1.5456 H   0  0  0  0  0  0  0  0  0  0  0  0
    3.7969    3.3238   -3.4852 H   0  0  0  0  0  0  0  0  0  0  0  0
    3.3799    2.5077   -4.9987 H   0  0  0  0  0  0  0  0  0  0  0  0
    5.0585    2.4776   -4.3934 H   0  0  0  0  0  0  0  0  0  0  0  0
    4.2597   -0.1019   -5.0182 H   0  0  0  0  0  0  0  0  0  0  0  0
    3.7897   -2.1941   -3.8314 H   0  0  0  0  0  0  0  0  0  0  0  0
    3.1025   -3.3975   -1.9571 H   0  0  0  0  0  0  0  0  0  0  0  0
    1.8421   -2.6102   -1.0081 H   0  0  0  0  0  0  0  0  0  0  0  0
    3.5291   -2.6538   -0.4164 H   0  0  0  0  0  0  0  0  0  0  0  0
  1  2  1  0  0  0  0
  1 11  1  0  0  0  0
  1 12  1  0  0  0  0
  1 13  1  0  0  0  0
  2  3  1  0  0  0  0
  2 14  1  0  0  0  0
  2 15  1  0  0  0  0
  3  4  1  0  0  0  0
  3  9  2  0  0  0  0
  4  5  2  0  0  0  0
  4 16  1  0  0  0  0
  5  6  1  0  0  0  0
  5  7  1  0  0  0  0
  6 17  1  0  0  0  0
  6 18  1  0  0  0  0
  6 19  1  0  0  0  0
  7  8  2  0  0  0  0
  7 20  1  0  0  0  0
  8  9  1  0  0  0  0
  8 21  1  0  0  0  0
  9 10  1  0  0  0  0
 10 22  1  0  0  0  0
 10 23  1  0  0  0  0
 10 24  1  0  0  0  0
M  END
