
  xtb     02032211353D
 xtb: 6.4.1 (23d549d)
 17 17  0     0  0            999 V2000
    2.6666   -1.5032    0.0018 C   0  0  0  0  0  0  0  0  0  0  0  0
    2.4124   -0.1972   -0.0015 C   0  0  0  0  0  0  0  0  0  0  0  0
    1.0917    0.3734   -0.0009 C   0  0  0  0  0  0  0  0  0  0  0  0
    0.7020    1.6951   -0.0006 C   0  0  0  0  0  0  0  0  0  0  0  0
   -0.7020    1.6951    0.0007 C   0  0  0  0  0  0  0  0  0  0  0  0
   -1.0917    0.3735    0.0009 C   0  0  0  0  0  0  0  0  0  0  0  0
   -2.4124   -0.1972    0.0013 C   0  0  0  0  0  0  0  0  0  0  0  0
   -2.6666   -1.5032   -0.0018 C   0  0  0  0  0  0  0  0  0  0  0  0
   -0.0000   -0.4225    0.0000 O   0  0  0  0  0  0  0  0  0  0  0  0
    3.6725   -1.8839    0.0013 H   0  0  0  0  0  0  0  0  0  0  0  0
    1.8690   -2.2262    0.0053 H   0  0  0  0  0  0  0  0  0  0  0  0
    3.2140    0.5283   -0.0046 H   0  0  0  0  0  0  0  0  0  0  0  0
    1.3500    2.5482   -0.0012 H   0  0  0  0  0  0  0  0  0  0  0  0
   -1.3500    2.5482    0.0014 H   0  0  0  0  0  0  0  0  0  0  0  0
   -3.2140    0.5283    0.0041 H   0  0  0  0  0  0  0  0  0  0  0  0
   -1.8690   -2.2262   -0.0048 H   0  0  0  0  0  0  0  0  0  0  0  0
   -3.6724   -1.8840   -0.0016 H   0  0  0  0  0  0  0  0  0  0  0  0
  1  2  2  0  0  0  0
  2  3  1  0  0  0  0
  3  4  4  0  0  0  0
  4  5  4  0  0  0  0
  5  6  4  0  0  0  0
  6  7  1  0  0  0  0
  7  8  2  0  0  0  0
  3  9  1  0  0  0  0
  6  9  1  0  0  0  0
  1 10  1  0  0  0  0
  1 11  1  0  0  0  0
  2 12  1  0  0  0  0
  4 13  1  0  0  0  0
  5 14  1  0  0  0  0
  7 15  1  0  0  0  0
  8 16  1  0  0  0  0
  8 17  1  0  0  0  0
M  END
