
 OpenBabel02032211113D

 53 53  0  0  0  0  0  0  0  0999 V2000
    1.3089    0.4334   -0.0885 C   0  0  0  0  0  0  0  0  0  0  0  0
    2.6212    0.2835    0.1038 C   0  0  0  0  0  0  0  0  0  0  0  0
    3.2109   -0.7454    0.9034 C   0  0  0  0  0  0  0  0  0  0  0  0
    4.6105   -0.2775    1.7691 S   0  0  0  0  0  0  0  0  0  0  0  0
    4.8488   -1.8154    2.4624 C   0  0  0  0  0  0  0  0  0  0  0  0
    6.0179   -1.9382    3.2628 C   0  0  0  0  0  0  0  0  0  0  0  0
    6.0097   -1.9212    4.6082 C   0  0  0  0  0  0  0  0  0  0  0  0
    3.8928   -2.7388    2.0267 C   0  0  0  0  0  0  0  0  0  0  0  0
    3.8290   -4.1952    2.4752 C   0  0  0  0  0  0  0  0  0  0  0  0
    4.9045   -5.1504    1.9312 C   0  0  0  0  0  0  0  0  0  0  0  0
    6.3146   -4.8579    2.4210 C   0  0  0  0  0  0  0  0  0  0  0  0
    7.3359   -5.8762    1.9452 C   0  0  0  0  0  0  0  0  0  0  0  0
    8.7385   -5.4938    2.4286 C   0  0  0  0  0  0  0  0  0  0  0  0
    9.7532   -6.4845    1.8939 C   0  0  0  0  0  0  0  0  0  0  0  0
    2.9122   -2.0954    1.1170 C   0  0  0  0  0  0  0  0  0  0  0  0
    1.7115   -2.8126    0.5176 C   0  0  0  0  0  0  0  0  0  0  0  0
    1.5912   -2.8116   -1.0061 C   0  0  0  0  0  0  0  0  0  0  0  0
    2.7464   -3.4772   -1.7518 C   0  0  0  0  0  0  0  0  0  0  0  0
    2.4530   -3.4158   -3.2524 C   0  0  0  0  0  0  0  0  0  0  0  0
    3.5524   -4.0469   -4.0961 C   0  0  0  0  0  0  0  0  0  0  0  0
    3.2034   -3.9441   -5.5727 C   0  0  0  0  0  0  0  0  0  0  0  0
    0.9468    1.2464   -0.7119 H   0  0  0  0  0  0  0  0  0  0  0  0
    0.5610   -0.2223    0.3398 H   0  0  0  0  0  0  0  0  0  0  0  0
    3.2895    1.0214   -0.3345 H   0  0  0  0  0  0  0  0  0  0  0  0
    6.9661   -2.0262    2.7494 H   0  0  0  0  0  0  0  0  0  0  0  0
    5.1049   -1.7865    5.1830 H   0  0  0  0  0  0  0  0  0  0  0  0
    6.9483   -2.0285    5.1405 H   0  0  0  0  0  0  0  0  0  0  0  0
    2.8728   -4.6332    2.1683 H   0  0  0  0  0  0  0  0  0  0  0  0
    3.8061   -4.2346    3.5696 H   0  0  0  0  0  0  0  0  0  0  0  0
    4.8911   -5.1502    0.8357 H   0  0  0  0  0  0  0  0  0  0  0  0
    4.6398   -6.1703    2.2488 H   0  0  0  0  0  0  0  0  0  0  0  0
    6.3342   -4.7874    3.5125 H   0  0  0  0  0  0  0  0  0  0  0  0
    6.6329   -3.9151    1.9840 H   0  0  0  0  0  0  0  0  0  0  0  0
    7.3277   -5.9008    0.8508 H   0  0  0  0  0  0  0  0  0  0  0  0
    7.0732   -6.8747    2.3069 H   0  0  0  0  0  0  0  0  0  0  0  0
    8.7740   -5.4792    3.5244 H   0  0  0  0  0  0  0  0  0  0  0  0
    8.9982   -4.4843    2.0867 H   0  0  0  0  0  0  0  0  0  0  0  0
    9.5165   -7.4978    2.2324 H   0  0  0  0  0  0  0  0  0  0  0  0
   10.7571   -6.2306    2.2409 H   0  0  0  0  0  0  0  0  0  0  0  0
    9.7566   -6.4799    0.7995 H   0  0  0  0  0  0  0  0  0  0  0  0
    0.8066   -2.3572    0.9387 H   0  0  0  0  0  0  0  0  0  0  0  0
    1.6655   -3.8553    0.8385 H   0  0  0  0  0  0  0  0  0  0  0  0
    1.4670   -1.7982   -1.3934 H   0  0  0  0  0  0  0  0  0  0  0  0
    0.6614   -3.3375   -1.2631 H   0  0  0  0  0  0  0  0  0  0  0  0
    2.8541   -4.5190   -1.4290 H   0  0  0  0  0  0  0  0  0  0  0  0
    3.6898   -2.9628   -1.5373 H   0  0  0  0  0  0  0  0  0  0  0  0
    2.3243   -2.3681   -3.5531 H   0  0  0  0  0  0  0  0  0  0  0  0
    1.5019   -3.9237   -3.4573 H   0  0  0  0  0  0  0  0  0  0  0  0
    3.6783   -5.1005   -3.8232 H   0  0  0  0  0  0  0  0  0  0  0  0
    4.5066   -3.5413   -3.9097 H   0  0  0  0  0  0  0  0  0  0  0  0
    2.2689   -4.4710   -5.7904 H   0  0  0  0  0  0  0  0  0  0  0  0
    3.9951   -4.3825   -6.1860 H   0  0  0  0  0  0  0  0  0  0  0  0
    3.0800   -2.8972   -5.8730 H   0  0  0  0  0  0  0  0  0  0  0  0
  1  2  2  0  0  0  0
  1 22  1  0  0  0  0
  1 23  1  0  0  0  0
  2  3  1  0  0  0  0
  2 24  1  0  0  0  0
  3  4  1  0  0  0  0
  3 15  2  0  0  0  0
  4  5  1  0  0  0  0
  5  6  1  0  0  0  0
  5  8  2  0  0  0  0
  6  7  2  0  0  0  0
  6 25  1  0  0  0  0
  7 26  1  0  0  0  0
  7 27  1  0  0  0  0
  8  9  1  0  0  0  0
  8 15  1  0  0  0  0
  9 10  1  0  0  0  0
  9 28  1  0  0  0  0
  9 29  1  0  0  0  0
 10 11  1  0  0  0  0
 10 30  1  0  0  0  0
 10 31  1  0  0  0  0
 11 12  1  0  0  0  0
 11 32  1  0  0  0  0
 11 33  1  0  0  0  0
 12 13  1  0  0  0  0
 12 34  1  0  0  0  0
 12 35  1  0  0  0  0
 13 14  1  0  0  0  0
 13 36  1  0  0  0  0
 13 37  1  0  0  0  0
 14 38  1  0  0  0  0
 14 39  1  0  0  0  0
 14 40  1  0  0  0  0
 15 16  1  0  0  0  0
 16 17  1  0  0  0  0
 16 41  1  0  0  0  0
 16 42  1  0  0  0  0
 17 18  1  0  0  0  0
 17 43  1  0  0  0  0
 17 44  1  0  0  0  0
 18 19  1  0  0  0  0
 18 45  1  0  0  0  0
 18 46  1  0  0  0  0
 19 20  1  0  0  0  0
 19 47  1  0  0  0  0
 19 48  1  0  0  0  0
 20 21  1  0  0  0  0
 20 49  1  0  0  0  0
 20 50  1  0  0  0  0
 21 51  1  0  0  0  0
 21 52  1  0  0  0  0
 21 53  1  0  0  0  0
M  END
