
 OpenBabel02032210383D

 46 48  0  0  0  0  0  0  0  0999 V2000
    1.1963   -0.3147   -0.4757 C   0  0  0  0  0  0  0  0  0  0  0  0
    2.5268   -0.0797   -0.1965 O   0  0  0  0  0  0  0  0  0  0  0  0
    3.2119   -0.5692    0.8700 C   0  0  0  0  0  0  0  0  0  0  0  0
    4.5702   -0.2632    0.9834 C   0  0  0  0  0  0  0  0  0  0  0  0
    5.3251   -0.7484    2.0550 C   0  0  0  0  0  0  0  0  0  0  0  0
    4.7378   -1.5595    3.0507 C   0  0  0  0  0  0  0  0  0  0  0  0
    5.5209   -2.0773    4.1545 N   0  0  0  0  0  0  0  0  0  0  0  0
    6.6594   -1.3346    4.6548 C   0  0  0  0  0  0  0  0  0  0  0  0
    6.6821    0.0745    4.6375 C   0  0  0  0  0  0  0  0  0  0  0  0
    7.7802    0.7823    5.1349 C   0  0  0  0  0  0  0  0  0  0  0  0
    8.8953    0.1124    5.6671 C   0  0  0  0  0  0  0  0  0  0  0  0
   10.0224    0.9454    6.1871 C   0  0  0  0  0  0  0  0  0  0  0  0
   11.1569    0.5122    6.7662 C   0  0  0  0  0  0  0  0  0  0  0  0
   11.4397   -0.7984    6.9662 F   0  0  0  0  0  0  0  0  0  0  0  0
   12.0708    1.4273    7.1828 F   0  0  0  0  0  0  0  0  0  0  0  0
    8.8816   -1.2949    5.6798 C   0  0  0  0  0  0  0  0  0  0  0  0
    7.7851   -2.0015    5.1826 C   0  0  0  0  0  0  0  0  0  0  0  0
    5.1865   -3.3559    4.7474 C   0  0  0  0  0  0  0  0  0  0  0  0
    4.6163   -4.3941    3.9786 C   0  0  0  0  0  0  0  0  0  0  0  0
    4.3156   -5.6322    4.5527 C   0  0  0  0  0  0  0  0  0  0  0  0
    4.5735   -5.8746    5.9045 C   0  0  0  0  0  0  0  0  0  0  0  0
    4.2764   -7.0998    6.4100 O   0  0  0  0  0  0  0  0  0  0  0  0
    4.5187   -7.5157    7.7031 C   0  0  0  0  0  0  0  0  0  0  0  0
    5.1334   -4.8479    6.6857 C   0  0  0  0  0  0  0  0  0  0  0  0
    5.4331   -3.6093    6.1149 C   0  0  0  0  0  0  0  0  0  0  0  0
    3.3623   -1.8570    2.9292 C   0  0  0  0  0  0  0  0  0  0  0  0
    2.6096   -1.3703    1.8568 C   0  0  0  0  0  0  0  0  0  0  0  0
    0.9239    0.2125   -1.4130 H   0  0  0  0  0  0  0  0  0  0  0  0
    0.5561    0.0700    0.3464 H   0  0  0  0  0  0  0  0  0  0  0  0
    1.0216   -1.4026   -0.6188 H   0  0  0  0  0  0  0  0  0  0  0  0
    5.0490    0.3502    0.2302 H   0  0  0  0  0  0  0  0  0  0  0  0
    6.3772   -0.5007    2.0872 H   0  0  0  0  0  0  0  0  0  0  0  0
    5.8409    0.6382    4.2565 H   0  0  0  0  0  0  0  0  0  0  0  0
    7.7528    1.8648    5.1098 H   0  0  0  0  0  0  0  0  0  0  0  0
    9.9170    2.0233    6.0949 H   0  0  0  0  0  0  0  0  0  0  0  0
    9.6994   -1.8781    6.0630 H   0  0  0  0  0  0  0  0  0  0  0  0
    7.8295   -3.0820    5.2028 H   0  0  0  0  0  0  0  0  0  0  0  0
    4.4200   -4.2622    2.9232 H   0  0  0  0  0  0  0  0  0  0  0  0
    3.8870   -6.4135    3.9375 H   0  0  0  0  0  0  0  0  0  0  0  0
    4.1745   -8.5638    7.8177 H   0  0  0  0  0  0  0  0  0  0  0  0
    3.9635   -6.8787    8.4240 H   0  0  0  0  0  0  0  0  0  0  0  0
    5.6080   -7.4757    7.9191 H   0  0  0  0  0  0  0  0  0  0  0  0
    5.3434   -4.9952    7.7365 H   0  0  0  0  0  0  0  0  0  0  0  0
    5.8531   -2.8444    6.7544 H   0  0  0  0  0  0  0  0  0  0  0  0
    2.8567   -2.4595    3.6717 H   0  0  0  0  0  0  0  0  0  0  0  0
    1.5595   -1.6246    1.8058 H   0  0  0  0  0  0  0  0  0  0  0  0
  1  2  1  0  0  0  0
  1 28  1  0  0  0  0
  1 29  1  0  0  0  0
  1 30  1  0  0  0  0
  2  3  1  0  0  0  0
  3  4  1  0  0  0  0
  3 27  2  0  0  0  0
  4  5  2  0  0  0  0
  4 31  1  0  0  0  0
  5  6  1  0  0  0  0
  5 32  1  0  0  0  0
  6  7  1  0  0  0  0
  6 26  2  0  0  0  0
  7  8  1  0  0  0  0
  7 18  1  0  0  0  0
  8  9  1  0  0  0  0
  8 17  2  0  0  0  0
  9 10  2  0  0  0  0
  9 33  1  0  0  0  0
 10 11  1  0  0  0  0
 10 34  1  0  0  0  0
 11 12  1  0  0  0  0
 11 16  2  0  0  0  0
 12 13  2  0  0  0  0
 12 35  1  0  0  0  0
 13 14  1  0  0  0  0
 13 15  1  0  0  0  0
 16 17  1  0  0  0  0
 16 36  1  0  0  0  0
 17 37  1  0  0  0  0
 18 19  1  0  0  0  0
 18 25  2  0  0  0  0
 19 20  2  0  0  0  0
 19 38  1  0  0  0  0
 20 21  1  0  0  0  0
 20 39  1  0  0  0  0
 21 22  1  0  0  0  0
 21 24  2  0  0  0  0
 22 23  1  0  0  0  0
 23 40  1  0  0  0  0
 23 41  1  0  0  0  0
 23 42  1  0  0  0  0
 24 25  1  0  0  0  0
 24 43  1  0  0  0  0
 25 44  1  0  0  0  0
 26 27  1  0  0  0  0
 26 45  1  0  0  0  0
 27 46  1  0  0  0  0
M  END
