
 OpenBabel02032211113D

 25 25  0  0  0  0  0  0  0  0999 V2000
    1.0189   -0.0875    0.0709 C   0  0  0  0  0  0  0  0  0  0  0  0
    2.3408    0.0788   -0.0696 C   0  0  0  0  0  0  0  0  0  0  0  0
    3.0717    1.2832    0.3462 C   0  0  0  0  0  0  0  0  0  0  0  0
    4.1924    1.6830   -0.3749 C   0  0  0  0  0  0  0  0  0  0  0  0
    4.9294    2.8009    0.0286 C   0  0  0  0  0  0  0  0  0  0  0  0
    4.5736    3.5712    1.1556 C   0  0  0  0  0  0  0  0  0  0  0  0
    5.4297    4.6418    1.4717 N   0  0  0  0  0  0  0  0  0  0  0  0
    4.8951    5.8803    2.0150 C   0  0  0  0  0  0  0  0  0  0  0  0
    3.4679    3.1349    1.9239 C   0  0  0  0  0  0  0  0  0  0  0  0
    3.1154    3.7241    3.2326 C   0  0  0  0  0  0  0  0  0  0  0  0
    1.8670    3.8790    3.6936 C   0  0  0  0  0  0  0  0  0  0  0  0
    2.7384    1.9989    1.5021 C   0  0  0  0  0  0  0  0  0  0  0  0
    0.5430   -1.0072   -0.2544 H   0  0  0  0  0  0  0  0  0  0  0  0
    0.3779    0.6764    0.4987 H   0  0  0  0  0  0  0  0  0  0  0  0
    2.9329   -0.7113   -0.5260 H   0  0  0  0  0  0  0  0  0  0  0  0
    4.5122    1.1301   -1.2549 H   0  0  0  0  0  0  0  0  0  0  0  0
    5.8053    3.0686   -0.5583 H   0  0  0  0  0  0  0  0  0  0  0  0
    6.0856    4.8303    0.7179 H   0  0  0  0  0  0  0  0  0  0  0  0
    3.8054    5.9570    1.9704 H   0  0  0  0  0  0  0  0  0  0  0  0
    5.2947    6.7243    1.4418 H   0  0  0  0  0  0  0  0  0  0  0  0
    5.2343    6.0044    3.0481 H   0  0  0  0  0  0  0  0  0  0  0  0
    3.9569    4.0363    3.8459 H   0  0  0  0  0  0  0  0  0  0  0  0
    0.9911    3.5891    3.1206 H   0  0  0  0  0  0  0  0  0  0  0  0
    1.6917    4.3108    4.6741 H   0  0  0  0  0  0  0  0  0  0  0  0
    1.9187    1.6363    2.1186 H   0  0  0  0  0  0  0  0  0  0  0  0
  1  2  2  0  0  0  0
  1 13  1  0  0  0  0
  1 14  1  0  0  0  0
  2  3  1  0  0  0  0
  2 15  1  0  0  0  0
  3  4  1  0  0  0  0
  3 12  2  0  0  0  0
  4  5  2  0  0  0  0
  4 16  1  0  0  0  0
  5  6  1  0  0  0  0
  5 17  1  0  0  0  0
  6  7  1  0  0  0  0
  6  9  2  0  0  0  0
  7  8  1  0  0  0  0
  7 18  1  0  0  0  0
  8 19  1  0  0  0  0
  8 20  1  0  0  0  0
  8 21  1  0  0  0  0
  9 10  1  0  0  0  0
  9 12  1  0  0  0  0
 10 11  2  0  0  0  0
 10 22  1  0  0  0  0
 11 23  1  0  0  0  0
 11 24  1  0  0  0  0
 12 25  1  0  0  0  0
M  END
