
  xtb     02032211353D
 xtb: 6.4.1 (23d549d)
 21 21  0     0  0            999 V2000
    3.6819   -1.1460    0.1516 C   0  0  0  0  0  0  0  0  0  0  0  0
    2.4558   -1.6106   -0.0524 C   0  0  0  0  0  0  0  0  0  0  0  0
    1.2220   -0.8310   -0.0448 C   0  0  0  0  0  0  0  0  0  0  0  0
    1.2123    0.5615   -0.0259 C   0  0  0  0  0  0  0  0  0  0  0  0
    0.0001    1.2464   -0.0193 C   0  0  0  0  0  0  0  0  0  0  0  0
    0.0005    2.6616   -0.0080 C   0  0  0  0  0  0  0  0  0  0  0  0
    0.0006    3.8079    0.0030 N   0  0  0  0  0  0  0  0  0  0  0  0
   -1.2123    0.5618   -0.0258 C   0  0  0  0  0  0  0  0  0  0  0  0
   -1.2223   -0.8306   -0.0448 C   0  0  0  0  0  0  0  0  0  0  0  0
   -2.4563   -1.6099   -0.0526 C   0  0  0  0  0  0  0  0  0  0  0  0
   -3.6823   -1.1452    0.1516 C   0  0  0  0  0  0  0  0  0  0  0  0
   -0.0002   -1.5021   -0.0637 C   0  0  0  0  0  0  0  0  0  0  0  0
    4.5368   -1.7998    0.1325 H   0  0  0  0  0  0  0  0  0  0  0  0
    3.8886   -0.1086    0.3517 H   0  0  0  0  0  0  0  0  0  0  0  0
    2.3166   -2.6700   -0.2300 H   0  0  0  0  0  0  0  0  0  0  0  0
    2.1336    1.1227   -0.0294 H   0  0  0  0  0  0  0  0  0  0  0  0
   -2.1334    1.1233   -0.0294 H   0  0  0  0  0  0  0  0  0  0  0  0
   -2.3174   -2.6692   -0.2309 H   0  0  0  0  0  0  0  0  0  0  0  0
   -3.8886   -0.1078    0.3523 H   0  0  0  0  0  0  0  0  0  0  0  0
   -4.5372   -1.7988    0.1329 H   0  0  0  0  0  0  0  0  0  0  0  0
   -0.0004   -2.5836   -0.0837 H   0  0  0  0  0  0  0  0  0  0  0  0
  1  2  2  0  0  0  0
  2  3  1  0  0  0  0
  3  4  4  0  0  0  0
  4  5  4  0  0  0  0
  5  6  1  0  0  0  0
  6  7  3  0  0  0  0
  5  8  4  0  0  0  0
  8  9  4  0  0  0  0
  9 10  1  0  0  0  0
 10 11  2  0  0  0  0
  3 12  4  0  0  0  0
  9 12  4  0  0  0  0
  1 13  1  0  0  0  0
  1 14  1  0  0  0  0
  2 15  1  0  0  0  0
  4 16  1  0  0  0  0
  8 17  1  0  0  0  0
 10 18  1  0  0  0  0
 11 19  1  0  0  0  0
 11 20  1  0  0  0  0
 12 21  1  0  0  0  0
M  END
