
 OpenBabel02012213513D

 26 27  0  0  0  0  0  0  0  0999 V2000
    2.4316   -0.0948   -0.0059 C   0  0  0  0  0  0  0  0  0  0  0  0
    0.9331   -0.0810   -0.0076 C   0  0  0  0  0  0  0  0  0  0  0  0
    0.2084   -1.2661   -0.0166 C   0  0  0  0  0  0  0  0  0  0  0  0
   -1.1791   -1.1979   -0.0233 C   0  0  0  0  0  0  0  0  0  0  0  0
   -1.8007    0.0463   -0.0146 C   0  0  0  0  0  0  0  0  0  0  0  0
   -1.0223    1.2035    0.0065 C   0  0  0  0  0  0  0  0  0  0  0  0
   -1.6242    2.5572    0.0603 C   0  0  0  0  0  0  0  0  0  0  0  0
   -0.8457    3.7146    0.0598 C   0  0  0  0  0  0  0  0  0  0  0  0
   -1.4651    4.9572    0.1543 C   0  0  0  0  0  0  0  0  0  0  0  0
   -2.8495    5.0225    0.2438 C   0  0  0  0  0  0  0  0  0  0  0  0
   -3.5749    3.8383    0.2277 C   0  0  0  0  0  0  0  0  0  0  0  0
   -5.0713    3.8495    0.3144 C   0  0  0  0  0  0  0  0  0  0  0  0
   -2.9848    2.6218    0.1380 N   0  0  0  0  0  0  0  0  0  0  0  0
    0.3402    1.1371    0.0028 N   0  0  0  0  0  0  0  0  0  0  0  0
    2.8295   -1.1142   -0.0060 H   0  0  0  0  0  0  0  0  0  0  0  0
    2.8073    0.4177    0.8852 H   0  0  0  0  0  0  0  0  0  0  0  0
    2.8082    0.4191   -0.8961 H   0  0  0  0  0  0  0  0  0  0  0  0
    0.7074   -2.2290   -0.0159 H   0  0  0  0  0  0  0  0  0  0  0  0
   -1.7755   -2.1057   -0.0297 H   0  0  0  0  0  0  0  0  0  0  0  0
   -2.8851    0.1119   -0.0159 H   0  0  0  0  0  0  0  0  0  0  0  0
    0.2366    3.6509   -0.0073 H   0  0  0  0  0  0  0  0  0  0  0  0
   -0.8683    5.8644    0.1638 H   0  0  0  0  0  0  0  0  0  0  0  0
   -3.3462    5.9834    0.3253 H   0  0  0  0  0  0  0  0  0  0  0  0
   -5.4663    4.8676    0.3921 H   0  0  0  0  0  0  0  0  0  0  0  0
   -5.3972    3.2888    1.1958 H   0  0  0  0  0  0  0  0  0  0  0  0
   -5.4980    3.3850   -0.5799 H   0  0  0  0  0  0  0  0  0  0  0  0
  1  2  1  0  0  0  0
  1 15  1  0  0  0  0
  1 16  1  0  0  0  0
  1 17  1  0  0  0  0
  2  3  1  0  0  0  0
  2 14  2  0  0  0  0
  3  4  2  0  0  0  0
  3 18  1  0  0  0  0
  4  5  1  0  0  0  0
  4 19  1  0  0  0  0
  5  6  2  0  0  0  0
  5 20  1  0  0  0  0
  6  7  1  0  0  0  0
  6 14  1  0  0  0  0
  7  8  1  0  0  0  0
  7 13  2  0  0  0  0
  8  9  2  0  0  0  0
  8 21  1  0  0  0  0
  9 10  1  0  0  0  0
  9 22  1  0  0  0  0
 10 11  2  0  0  0  0
 10 23  1  0  0  0  0
 11 12  1  0  0  0  0
 11 13  1  0  0  0  0
 12 24  1  0  0  0  0
 12 25  1  0  0  0  0
 12 26  1  0  0  0  0
M  END
