
  xtb     02032211363D
 xtb: 6.4.1 (23d549d)
 32 32  0     0  0            999 V2000
    1.2853    3.4284    0.8140 C   0  0  0  0  0  0  0  0  0  0  0  0
    1.5766    2.3900    0.0426 C   0  0  0  0  0  0  0  0  0  0  0  0
    0.7989    1.1538    0.0091 C   0  0  0  0  0  0  0  0  0  0  0  0
   -0.5871    1.2070    0.1228 C   0  0  0  0  0  0  0  0  0  0  0  0
   -1.3935    0.0793    0.0329 C   0  0  0  0  0  0  0  0  0  0  0  0
   -2.8518    0.3449    0.1920 C   0  0  0  0  0  0  0  0  0  0  0  0
   -3.2913    1.1763    0.9470 O   0  0  0  0  0  0  0  0  0  0  0  0
   -3.6302   -0.3810   -0.6212 O   0  0  0  0  0  0  0  0  0  0  0  0
   -5.0250   -0.1255   -0.5351 C   0  0  0  0  0  0  0  0  0  0  0  0
   -0.8133   -1.1878   -0.1517 C   0  0  0  0  0  0  0  0  0  0  0  0
   -1.5976   -2.4192   -0.1974 C   0  0  0  0  0  0  0  0  0  0  0  0
   -1.1475   -3.6091    0.1814 C   0  0  0  0  0  0  0  0  0  0  0  0
    0.5735   -1.2394   -0.2640 C   0  0  0  0  0  0  0  0  0  0  0  0
    1.3782   -0.1102   -0.1862 C   0  0  0  0  0  0  0  0  0  0  0  0
    2.8411   -0.3571   -0.2820 C   0  0  0  0  0  0  0  0  0  0  0  0
    3.3243   -1.3134   -0.8377 O   0  0  0  0  0  0  0  0  0  0  0  0
    3.5766    0.5642    0.3543 O   0  0  0  0  0  0  0  0  0  0  0  0
    4.9807    0.3571    0.3367 C   0  0  0  0  0  0  0  0  0  0  0  0
    1.8786    4.3263    0.7974 H   0  0  0  0  0  0  0  0  0  0  0  0
    0.4610    3.4120    1.5071 H   0  0  0  0  0  0  0  0  0  0  0  0
    2.4373    2.4282   -0.6100 H   0  0  0  0  0  0  0  0  0  0  0  0
   -1.0682    2.1632    0.2641 H   0  0  0  0  0  0  0  0  0  0  0  0
   -5.4953   -0.7477   -1.2922 H   0  0  0  0  0  0  0  0  0  0  0  0
   -5.2288    0.9304   -0.7233 H   0  0  0  0  0  0  0  0  0  0  0  0
   -5.3960   -0.3820    0.4594 H   0  0  0  0  0  0  0  0  0  0  0  0
   -2.6134   -2.3204   -0.5471 H   0  0  0  0  0  0  0  0  0  0  0  0
   -0.1543   -3.7572    0.5707 H   0  0  0  0  0  0  0  0  0  0  0  0
   -1.7717   -4.4847    0.1300 H   0  0  0  0  0  0  0  0  0  0  0  0
    1.0614   -2.1871   -0.4342 H   0  0  0  0  0  0  0  0  0  0  0  0
    5.4145    1.1739    0.9076 H   0  0  0  0  0  0  0  0  0  0  0  0
    5.3536    0.3629   -0.6899 H   0  0  0  0  0  0  0  0  0  0  0  0
    5.2281   -0.6043    0.7917 H   0  0  0  0  0  0  0  0  0  0  0  0
  1  2  2  0  0  0  0
  2  3  1  0  0  0  0
  3  4  4  0  0  0  0
  4  5  4  0  0  0  0
  5  6  1  0  0  0  0
  6  7  2  0  0  0  0
  6  8  1  0  0  0  0
  8  9  1  0  0  0  0
  5 10  4  0  0  0  0
 10 11  1  0  0  0  0
 11 12  2  0  0  0  0
 10 13  4  0  0  0  0
  3 14  4  0  0  0  0
 13 14  4  0  0  0  0
 14 15  1  0  0  0  0
 15 16  2  0  0  0  0
 15 17  1  0  0  0  0
 17 18  1  0  0  0  0
  1 19  1  0  0  0  0
  1 20  1  0  0  0  0
  2 21  1  0  0  0  0
  4 22  1  0  0  0  0
  9 23  1  0  0  0  0
  9 24  1  0  0  0  0
  9 25  1  0  0  0  0
 11 26  1  0  0  0  0
 12 27  1  0  0  0  0
 12 28  1  0  0  0  0
 13 29  1  0  0  0  0
 18 30  1  0  0  0  0
 18 31  1  0  0  0  0
 18 32  1  0  0  0  0
M  END
