
 OpenBabel02012213493D

 21 22  0  0  0  0  0  0  0  0999 V2000
    1.1739   -0.2497   -0.0437 C   0  0  0  0  0  0  0  0  0  0  0  0
    2.6516   -0.0440   -0.0545 C   0  0  0  0  0  0  0  0  0  0  0  0
    3.4445    1.4491   -0.0099 S   0  0  0  0  0  0  0  0  0  0  0  0
    5.0175    0.8291   -0.0436 C   0  0  0  0  0  0  0  0  0  0  0  0
    6.2745    1.6324   -0.0327 C   0  0  0  0  0  0  0  0  0  0  0  0
    4.9276   -0.5538   -0.0981 C   0  0  0  0  0  0  0  0  0  0  0  0
    3.6188   -1.0375   -0.0883 C   0  0  0  0  0  0  0  0  0  0  0  0
    3.3905   -2.3733   -0.1120 O   0  0  0  0  0  0  0  0  0  0  0  0
    4.4391   -3.2469    0.1630 C   0  0  0  0  0  0  0  0  0  0  0  0
    5.7318   -2.7426   -0.5189 C   0  0  0  0  0  0  0  0  0  0  0  0
    5.9688   -1.4193   -0.1573 O   0  0  0  0  0  0  0  0  0  0  0  0
    0.6506    0.7286   -0.0096 H   0  0  0  0  0  0  0  0  0  0  0  0
    0.8869   -0.8449    0.8480 H   0  0  0  0  0  0  0  0  0  0  0  0
    0.8670   -0.7921   -0.9621 H   0  0  0  0  0  0  0  0  0  0  0  0
    6.0372    2.7160    0.0080 H   0  0  0  0  0  0  0  0  0  0  0  0
    6.8578    1.4240   -0.9536 H   0  0  0  0  0  0  0  0  0  0  0  0
    6.8815    1.3615    0.8561 H   0  0  0  0  0  0  0  0  0  0  0  0
    4.1795   -4.2757   -0.1629 H   0  0  0  0  0  0  0  0  0  0  0  0
    4.6123   -3.2577    1.2615 H   0  0  0  0  0  0  0  0  0  0  0  0
    5.5787   -2.7866   -1.6196 H   0  0  0  0  0  0  0  0  0  0  0  0
    6.6056   -3.3759   -0.2592 H   0  0  0  0  0  0  0  0  0  0  0  0
  1  2  1  0  0  0  0
  1 12  1  0  0  0  0
  1 13  1  0  0  0  0
  1 14  1  0  0  0  0
  2  3  1  0  0  0  0
  2  7  2  0  0  0  0
  3  4  1  0  0  0  0
  4  5  1  0  0  0  0
  4  6  2  0  0  0  0
  5 15  1  0  0  0  0
  5 16  1  0  0  0  0
  5 17  1  0  0  0  0
  6  7  1  0  0  0  0
  6 11  1  0  0  0  0
  7  8  1  0  0  0  0
  8  9  1  0  0  0  0
  9 10  1  0  0  0  0
  9 18  1  0  0  0  0
  9 19  1  0  0  0  0
 10 11  1  0  0  0  0
 10 20  1  0  0  0  0
 10 21  1  0  0  0  0
M  END
