
 OpenBabel02012213493D

 21 22  0  0  0  0  0  0  0  0999 V2000
    1.2036   -0.2156   -0.0519 C   0  0  0  0  0  0  0  0  0  0  0  0
    2.6888   -0.1076   -0.0531 C   0  0  0  0  0  0  0  0  0  0  0  0
    3.4475    1.4339   -0.0062 S   0  0  0  0  0  0  0  0  0  0  0  0
    5.0218    0.7544   -0.0414 C   0  0  0  0  0  0  0  0  0  0  0  0
    6.2294    1.6236   -0.0232 C   0  0  0  0  0  0  0  0  0  0  0  0
    4.9583   -0.6163   -0.0996 C   0  0  0  0  0  0  0  0  0  0  0  0
    3.6293   -1.1118   -0.0749 C   0  0  0  0  0  0  0  0  0  0  0  0
    3.3052   -2.4279   -0.0953 O   0  0  0  0  0  0  0  0  0  0  0  0
    4.4645   -3.2317    0.1942 C   0  0  0  0  0  0  0  0  0  0  0  0
    5.7087   -2.7333   -0.5511 C   0  0  0  0  0  0  0  0  0  0  0  0
    6.0651   -1.3966   -0.1576 O   0  0  0  0  0  0  0  0  0  0  0  0
    0.7151    0.7647   -0.0312 H   0  0  0  0  0  0  0  0  0  0  0  0
    0.8631   -0.7761    0.8249 H   0  0  0  0  0  0  0  0  0  0  0  0
    0.8602   -0.7392   -0.9501 H   0  0  0  0  0  0  0  0  0  0  0  0
    5.9782    2.6885    0.0028 H   0  0  0  0  0  0  0  0  0  0  0  0
    6.8367    1.4432   -0.9163 H   0  0  0  0  0  0  0  0  0  0  0  0
    6.8409    1.4008    0.8575 H   0  0  0  0  0  0  0  0  0  0  0  0
    4.2373   -4.2603   -0.1034 H   0  0  0  0  0  0  0  0  0  0  0  0
    4.6286   -3.2188    1.2792 H   0  0  0  0  0  0  0  0  0  0  0  0
    5.5452   -2.7387   -1.6359 H   0  0  0  0  0  0  0  0  0  0  0  0
    6.5642   -3.3799   -0.3326 H   0  0  0  0  0  0  0  0  0  0  0  0
  1  2  1  0  0  0  0
  1 12  1  0  0  0  0
  1 13  1  0  0  0  0
  1 14  1  0  0  0  0
  2  3  1  0  0  0  0
  2  7  2  0  0  0  0
  3  4  1  0  0  0  0
  4  5  1  0  0  0  0
  4  6  2  0  0  0  0
  5 15  1  0  0  0  0
  5 16  1  0  0  0  0
  5 17  1  0  0  0  0
  6  7  1  0  0  0  0
  6 11  1  0  0  0  0
  7  8  1  0  0  0  0
  8  9  1  0  0  0  0
  9 10  1  0  0  0  0
  9 18  1  0  0  0  0
  9 19  1  0  0  0  0
 10 11  1  0  0  0  0
 10 20  1  0  0  0  0
 10 21  1  0  0  0  0
M  END
