18

C          1.08510       -0.09490       -0.00640
C          2.58510       -0.07510       -0.00450
C          3.28230        1.14040       -0.00230
N          4.63560        1.14900        0.00130
C          5.36850        0.01090        0.00330
C          6.79620        0.13880        0.00900
N          7.95000        0.25240        0.01360
C          4.71650       -1.24470        0.00070
C          5.46790       -2.54810        0.00350
C          3.31310       -1.27200       -0.00390
H          0.67140        0.93450       -0.00540
H          0.71160       -0.61890        0.89720
H          0.71300       -0.61710       -0.91160
H          2.75990        2.08330       -0.00260
H          6.56640       -2.40930        0.00790
H          5.20310       -3.13310       -0.90050
H          5.19610       -3.13180        0.90640
H          2.79030       -2.22340       -0.00570
