
  xtb     02012214103D
 xtb: 6.4.1 (23d549d)
 18 18  0     0  0            999 V2000
    1.0932   -0.0866   -0.0070 c   0  0  0  0  0  0  0  0  0  0  0  0
    2.5871   -0.0835   -0.0033 c   0  0  0  0  0  0  0  0  0  0  0  0
    3.3198    1.1038   -0.0012 c   0  0  0  0  0  0  0  0  0  0  0  0
    4.6323    1.1505    0.0023 n   0  0  0  0  0  0  0  0  0  0  0  0
    5.3125    0.0055    0.0038 c   0  0  0  0  0  0  0  0  0  0  0  0
    6.7290    0.1181    0.0077 c   0  0  0  0  0  0  0  0  0  0  0  0
    7.8726    0.1963    0.0120 n   0  0  0  0  0  0  0  0  0  0  0  0
    4.6988   -1.2554    0.0018 c   0  0  0  0  0  0  0  0  0  0  0  0
    5.4841   -2.5274    0.0036 c   0  0  0  0  0  0  0  0  0  0  0  0
    3.3097   -1.2699   -0.0018 c   0  0  0  0  0  0  0  0  0  0  0  0
    0.7028    0.9276   -0.0071 h   0  0  0  0  0  0  0  0  0  0  0  0
    0.7147   -0.6081    0.8714 h   0  0  0  0  0  0  0  0  0  0  0  0
    0.7189   -0.6067   -0.8881 h   0  0  0  0  0  0  0  0  0  0  0  0
    2.8222    2.0650   -0.0024 h   0  0  0  0  0  0  0  0  0  0  0  0
    6.5530   -2.3295    0.0068 h   0  0  0  0  0  0  0  0  0  0  0  0
    5.2390   -3.1200   -0.8775 h   0  0  0  0  0  0  0  0  0  0  0  0
    5.2339   -3.1208    0.8826 h   0  0  0  0  0  0  0  0  0  0  0  0
    2.7886   -2.2182   -0.0036 h   0  0  0  0  0  0  0  0  0  0  0  0
  1  2  1  0  0  0  0
  2  3  4  0  0  0  0
  3  4  4  0  0  0  0
  4  5  4  0  0  0  0
  5  6  1  0  0  0  0
  6  7  3  0  0  0  0
  5  8  4  0  0  0  0
  8  9  1  0  0  0  0
  2 10  4  0  0  0  0
  8 10  4  0  0  0  0
  1 11  1  0  0  0  0
  1 12  1  0  0  0  0
  1 13  1  0  0  0  0
  3 14  1  0  0  0  0
  9 15  1  0  0  0  0
  9 16  1  0  0  0  0
  9 17  1  0  0  0  0
 10 18  1  0  0  0  0
M  END
