18

C          2.65595        1.00139       -0.89755
C          2.30670        0.08190        0.00880
C          3.02420       -1.20330        0.15500
C          2.61550       -2.32510       -0.57230
C          3.30280       -3.52750       -0.41780
C          4.38870       -3.58830        0.46090
C          5.13100       -4.85490        0.64200
C          4.79953       -5.75571        1.57355
N          4.74680       -2.46650        1.14400
N          4.08840       -1.31570        0.99660
H          2.09982        1.93060       -0.96676
H          3.49008        0.84518       -1.57450
H          1.46353        0.29294        0.66077
H          1.77260       -2.27130       -1.25060
H          2.99080       -4.40070       -0.97720
H          5.97843       -5.06723       -0.00408
H          3.96276       -5.59708        2.24654
H          5.37391       -6.67155        1.66814
18

C          1.26847        0.41787        0.78217
C          2.30670        0.08190        0.00880
C          3.02420       -1.20330        0.15500
C          2.61550       -2.32510       -0.57230
C          3.30280       -3.52750       -0.41780
C          4.38870       -3.58830        0.46090
C          5.13100       -4.85490        0.64200
C          6.19255       -5.17923       -0.10435
N          4.74680       -2.46650        1.14400
N          4.08840       -1.31570        0.99660
H          0.77260        1.37205        0.63670
H          0.90111       -0.24354        1.56065
H          2.63043        0.78332       -0.75524
H          1.77260       -2.27130       -1.25060
H          2.99080       -4.40070       -0.97720
H          4.80637       -5.55198        1.40968
H          6.56154       -4.52185       -0.88535
H          6.70575       -6.12009        0.06608
18

C          2.91329        1.26486        0.15560
C          2.30670        0.08190        0.00880
C          3.02420       -1.20330        0.15500
C          2.61550       -2.32510       -0.57230
C          3.30280       -3.52750       -0.41780
C          4.38870       -3.58830        0.46090
C          5.13100       -4.85490        0.64200
C          4.79953       -5.75571        1.57355
N          4.74680       -2.46650        1.14400
N          4.08840       -1.31570        0.99660
H          2.34474        2.18185        0.03991
H          3.97060        1.33702        0.39082
H          1.24584        0.07057       -0.22570
H          1.77260       -2.27130       -1.25060
H          2.99080       -4.40070       -0.97720
H          5.97843       -5.06723       -0.00408
H          3.96276       -5.59708        2.24654
H          5.37391       -6.67155        1.66814
18

C          1.26847        0.41787        0.78217
C          2.30670        0.08190        0.00880
C          3.02420       -1.20330        0.15500
C          2.61550       -2.32510       -0.57230
C          3.30280       -3.52750       -0.41780
C          4.38870       -3.58830        0.46090
C          5.13100       -4.85490        0.64200
C          4.79953       -5.75571        1.57355
N          4.74680       -2.46650        1.14400
N          4.08840       -1.31570        0.99660
H          0.77260        1.37205        0.63670
H          0.90111       -0.24354        1.56065
H          2.63043        0.78332       -0.75524
H          1.77260       -2.27130       -1.25060
H          2.99080       -4.40070       -0.97720
H          5.97843       -5.06723       -0.00408
H          3.96276       -5.59708        2.24654
H          5.37391       -6.67155        1.66814
18

C          2.21215        0.96999        1.00442
C          2.30670        0.08190        0.00880
C          3.02420       -1.20330        0.15500
C          2.61550       -2.32510       -0.57230
C          3.30280       -3.52750       -0.41780
C          4.38870       -3.58830        0.46090
C          5.13100       -4.85490        0.64200
C          4.79953       -5.75571        1.57355
N          4.74680       -2.46650        1.14400
N          4.08840       -1.31570        0.99660
H          1.67405        1.89960        0.85020
H          2.66231        0.78685        1.97512
H          1.83551        0.31837       -0.94126
H          1.77260       -2.27130       -1.25060
H          2.99080       -4.40070       -0.97720
H          5.97843       -5.06723       -0.00408
H          3.96276       -5.59708        2.24654
H          5.37391       -6.67155        1.66814
18

C          2.65595        1.00139       -0.89755
C          2.30670        0.08190        0.00880
C          3.02420       -1.20330        0.15500
C          2.61550       -2.32510       -0.57230
C          3.30280       -3.52750       -0.41780
C          4.38870       -3.58830        0.46090
C          5.13100       -4.85490        0.64200
C          6.19255       -5.17923       -0.10435
N          4.74680       -2.46650        1.14400
N          4.08840       -1.31570        0.99660
H          2.09982        1.93060       -0.96676
H          3.49008        0.84518       -1.57450
H          1.46353        0.29294        0.66077
H          1.77260       -2.27130       -1.25060
H          2.99080       -4.40070       -0.97720
H          4.80637       -5.55198        1.40968
H          6.56154       -4.52185       -0.88535
H          6.70575       -6.12009        0.06608
18

C          2.21215        0.96999        1.00442
C          2.30670        0.08190        0.00880
C          3.02420       -1.20330        0.15500
C          2.61550       -2.32510       -0.57230
C          3.30280       -3.52750       -0.41780
C          4.38870       -3.58830        0.46090
C          5.13100       -4.85490        0.64200
C          5.24271       -5.76801       -0.32901
N          4.74680       -2.46650        1.14400
N          4.08840       -1.31570        0.99660
H          1.67405        1.89960        0.85020
H          2.66231        0.78685        1.97512
H          1.83551        0.31837       -0.94126
H          1.77260       -2.27130       -1.25060
H          2.99080       -4.40070       -0.97720
H          5.60631       -5.05622        1.59813
H          4.78891       -5.62057       -1.30400
H          5.79845       -6.68261       -0.14932
18

C          2.91329        1.26486        0.15560
C          2.30670        0.08190        0.00880
C          3.02420       -1.20330        0.15500
C          2.61550       -2.32510       -0.57230
C          3.30280       -3.52750       -0.41780
C          4.38870       -3.58830        0.46090
C          5.13100       -4.85490        0.64200
C          5.24271       -5.76801       -0.32901
N          4.74680       -2.46650        1.14400
N          4.08840       -1.31570        0.99660
H          2.34474        2.18185        0.03991
H          3.97060        1.33702        0.39082
H          1.24584        0.07057       -0.22570
H          1.77260       -2.27130       -1.25060
H          2.99080       -4.40070       -0.97720
H          5.60631       -5.05622        1.59813
H          4.78891       -5.62057       -1.30400
H          5.79845       -6.68261       -0.14932
18

C          1.26847        0.41787        0.78217
C          2.30670        0.08190        0.00880
C          3.02420       -1.20330        0.15500
C          2.61550       -2.32510       -0.57230
C          3.30280       -3.52750       -0.41780
C          4.38870       -3.58830        0.46090
C          5.13100       -4.85490        0.64200
C          5.24271       -5.76801       -0.32901
N          4.74680       -2.46650        1.14400
N          4.08840       -1.31570        0.99660
H          0.77260        1.37205        0.63670
H          0.90111       -0.24354        1.56065
H          2.63043        0.78332       -0.75524
H          1.77260       -2.27130       -1.25060
H          2.99080       -4.40070       -0.97720
H          5.60631       -5.05622        1.59813
H          4.78891       -5.62057       -1.30400
H          5.79845       -6.68261       -0.14932
18

C          1.69191        0.43736       -1.12459
C          2.30670        0.08190        0.00880
C          3.02420       -1.20330        0.15500
C          2.61550       -2.32510       -0.57230
C          3.30280       -3.52750       -0.41780
C          4.38870       -3.58830        0.46090
C          5.13100       -4.85490        0.64200
C          4.79953       -5.75571        1.57355
N          4.74680       -2.46650        1.14400
N          4.08840       -1.31570        0.99660
H          1.17892        1.39168       -1.18486
H          1.69089       -0.20743       -1.99791
H          2.27559        0.76792        0.85080
H          1.77260       -2.27130       -1.25060
H          2.99080       -4.40070       -0.97720
H          5.97843       -5.06723       -0.00408
H          3.96276       -5.59708        2.24654
H          5.37391       -6.67155        1.66814
