
  xtb     02032211343D
 xtb: 6.4.1 (23d549d)
 24 24  0     0  0            999 V2000
    2.6674   -2.8260    0.0250 C   0  0  0  0  0  0  0  0  0  0  0  0
    2.8259   -1.5087   -0.0067 C   0  0  0  0  0  0  0  0  0  0  0  0
    1.7694   -0.5016   -0.0049 C   0  0  0  0  0  0  0  0  0  0  0  0
    0.4144   -0.8338   -0.0028 C   0  0  0  0  0  0  0  0  0  0  0  0
   -0.5583    0.1580    0.0000 C   0  0  0  0  0  0  0  0  0  0  0  0
   -1.9856   -0.1286    0.0023 C   0  0  0  0  0  0  0  0  0  0  0  0
   -2.5944   -1.3049    0.0001 C   0  0  0  0  0  0  0  0  0  0  0  0
   -2.0480   -2.5148   -0.0045 F   0  0  0  0  0  0  0  0  0  0  0  0
   -3.9213   -1.4346    0.0026 F   0  0  0  0  0  0  0  0  0  0  0  0
   -0.1763    1.5039    0.0007 C   0  0  0  0  0  0  0  0  0  0  0  0
    1.1673    1.8475   -0.0027 C   0  0  0  0  0  0  0  0  0  0  0  0
    1.6455    3.1217   -0.0033 O   0  0  0  0  0  0  0  0  0  0  0  0
    0.7273    4.1876   -0.0008 C   0  0  0  0  0  0  0  0  0  0  0  0
    2.1311    0.8406   -0.0060 C   0  0  0  0  0  0  0  0  0  0  0  0
    3.5154   -3.4892    0.0217 H   0  0  0  0  0  0  0  0  0  0  0  0
    1.7015   -3.2996    0.0563 H   0  0  0  0  0  0  0  0  0  0  0  0
    3.8290   -1.1015   -0.0345 H   0  0  0  0  0  0  0  0  0  0  0  0
    0.1261   -1.8695   -0.0050 H   0  0  0  0  0  0  0  0  0  0  0  0
   -2.6497    0.7240    0.0060 H   0  0  0  0  0  0  0  0  0  0  0  0
   -0.9437    2.2617    0.0033 H   0  0  0  0  0  0  0  0  0  0  0  0
    1.3296    5.0946   -0.0030 H   0  0  0  0  0  0  0  0  0  0  0  0
    0.0982    4.1748    0.8951 H   0  0  0  0  0  0  0  0  0  0  0  0
    0.0926    4.1742   -0.8928 H   0  0  0  0  0  0  0  0  0  0  0  0
    3.1698    1.1330   -0.0085 H   0  0  0  0  0  0  0  0  0  0  0  0
  1  2  2  0  0  0  0
  2  3  1  0  0  0  0
  3  4  4  0  0  0  0
  4  5  4  0  0  0  0
  5  6  1  0  0  0  0
  6  7  2  0  0  0  0
  7  8  1  0  0  0  0
  7  9  1  0  0  0  0
  5 10  4  0  0  0  0
 10 11  4  0  0  0  0
 11 12  1  0  0  0  0
 12 13  1  0  0  0  0
  3 14  4  0  0  0  0
 11 14  4  0  0  0  0
  1 15  1  0  0  0  0
  1 16  1  0  0  0  0
  2 17  1  0  0  0  0
  4 18  1  0  0  0  0
  6 19  1  0  0  0  0
 10 20  1  0  0  0  0
 13 21  1  0  0  0  0
 13 22  1  0  0  0  0
 13 23  1  0  0  0  0
 14 24  1  0  0  0  0
M  END
