
  xtb     02032211353D
 xtb: 6.4.1 (23d549d)
 26 26  0     0  0            999 V2000
    3.8181    1.1642   -0.3457 C   0  0  0  0  0  0  0  0  0  0  0  0
    3.2185    0.0478    0.0507 C   0  0  0  0  0  0  0  0  0  0  0  0
    1.7855   -0.2156    0.0721 C   0  0  0  0  0  0  0  0  0  0  0  0
    1.3354   -1.4902    0.4181 C   0  0  0  0  0  0  0  0  0  0  0  0
   -0.0130   -1.7744    0.4447 C   0  0  0  0  0  0  0  0  0  0  0  0
   -0.9622   -0.8096    0.1156 C   0  0  0  0  0  0  0  0  0  0  0  0
   -2.3803   -1.2044    0.1482 C   0  0  0  0  0  0  0  0  0  0  0  0
   -3.1931   -1.1942   -0.8951 C   0  0  0  0  0  0  0  0  0  0  0  0
   -0.5302    0.4794   -0.2159 C   0  0  0  0  0  0  0  0  0  0  0  0
   -1.5031    1.6012   -0.4589 C   0  0  0  0  0  0  0  0  0  0  0  0
   -2.0074    2.1581    0.8736 C   0  0  0  0  0  0  0  0  0  0  0  0
    0.8281    0.7523   -0.2267 C   0  0  0  0  0  0  0  0  0  0  0  0
    4.8902    1.2605   -0.3270 H   0  0  0  0  0  0  0  0  0  0  0  0
    3.2764    2.0216   -0.7065 H   0  0  0  0  0  0  0  0  0  0  0  0
    3.8296   -0.7796    0.3923 H   0  0  0  0  0  0  0  0  0  0  0  0
    2.0514   -2.2607    0.6676 H   0  0  0  0  0  0  0  0  0  0  0  0
   -0.3482   -2.7670    0.7122 H   0  0  0  0  0  0  0  0  0  0  0  0
   -2.7306   -1.5820    1.1024 H   0  0  0  0  0  0  0  0  0  0  0  0
   -2.8645   -0.8697   -1.8691 H   0  0  0  0  0  0  0  0  0  0  0  0
   -4.2154   -1.5257   -0.8229 H   0  0  0  0  0  0  0  0  0  0  0  0
   -2.3551    1.2548   -1.0422 H   0  0  0  0  0  0  0  0  0  0  0  0
   -1.0078    2.3974   -1.0182 H   0  0  0  0  0  0  0  0  0  0  0  0
   -2.5365    1.3854    1.4268 H   0  0  0  0  0  0  0  0  0  0  0  0
   -2.6869    2.9907    0.7057 H   0  0  0  0  0  0  0  0  0  0  0  0
   -1.1737    2.5055    1.4801 H   0  0  0  0  0  0  0  0  0  0  0  0
    1.1474    1.7546   -0.4706 H   0  0  0  0  0  0  0  0  0  0  0  0
  1  2  2  0  0  0  0
  2  3  1  0  0  0  0
  3  4  4  0  0  0  0
  4  5  4  0  0  0  0
  5  6  4  0  0  0  0
  6  7  1  0  0  0  0
  7  8  2  0  0  0  0
  6  9  4  0  0  0  0
  9 10  1  0  0  0  0
 10 11  1  0  0  0  0
  3 12  4  0  0  0  0
  9 12  4  0  0  0  0
  1 13  1  0  0  0  0
  1 14  1  0  0  0  0
  2 15  1  0  0  0  0
  4 16  1  0  0  0  0
  5 17  1  0  0  0  0
  7 18  1  0  0  0  0
  8 19  1  0  0  0  0
  8 20  1  0  0  0  0
 10 21  1  0  0  0  0
 10 22  1  0  0  0  0
 11 23  1  0  0  0  0
 11 24  1  0  0  0  0
 11 25  1  0  0  0  0
 12 26  1  0  0  0  0
M  END
