35

C          0.30189        1.36060        2.51742
C         -0.05738        0.68534        1.22616
C         -0.75743       -0.53214        1.22079
C         -1.09700       -1.17010        0.00980
N         -1.82610       -2.42650        0.00770
C         -2.69980       -2.88100       -0.94140
C         -3.19780       -4.12360       -0.59630
C         -4.10810       -4.81590       -1.39440
C         -4.51400       -4.21800       -2.59660
C         -4.00050       -2.96240       -2.97660
C         -3.08330       -2.28360       -2.15460
C         -1.78920       -3.41550        0.95170
C         -2.62100       -4.46250        0.59950
C         -2.77240       -5.60040        1.39080
C         -2.05390       -5.66310        2.59390
C         -1.21790       -4.59700        2.98080
C         -1.08150       -3.45920        2.16500
C         -0.71278       -0.55428       -1.19789
C         -0.01573        0.65612       -1.19421
C          0.31123        1.27490        0.01154
H         -0.05572        0.78166        3.39546
H         -0.16260        2.36885        2.55133
H          1.40466        1.46586        2.59081
H         -1.00925       -0.98893        2.16623
H         -4.48930       -5.78580       -1.10280
H         -5.21790       -4.72900       -3.24060
H         -4.31120       -2.51840       -3.91350
H         -2.69440       -1.33570       -2.48890
H         -3.42510       -6.41070        1.09340
H         -2.14990       -6.53150        3.23270
H         -0.67960       -4.65240        3.91810
H         -0.45080       -2.65340        2.50310
H         -0.97269       -0.98635       -2.15242
H          0.26606        1.11948       -2.13106
H          0.85071        2.21416       -0.00023
35

C         -1.49231        2.40815       -1.28994
C         -0.92319        1.19086       -0.62156
C         -1.62801       -0.02386       -0.61708
C         -1.09700       -1.17010        0.00980
N         -1.82610       -2.42650        0.00770
C         -2.69980       -2.88100       -0.94140
C         -3.19780       -4.12360       -0.59630
C         -4.10810       -4.81590       -1.39440
C         -4.51400       -4.21800       -2.59660
C         -4.00050       -2.96240       -2.97660
C         -3.08330       -2.28360       -2.15460
C         -1.78920       -3.41550        0.95170
C         -2.62100       -4.46250        0.59950
C         -2.77240       -5.60040        1.39080
C         -2.05390       -5.66310        2.59390
C         -1.21790       -4.59700        2.98080
C         -1.08150       -3.45920        2.16500
C          0.16115       -1.06449        0.63533
C          0.86297        0.14315        0.63250
C          0.32491        1.26697        0.00709
H         -2.48308        2.19888       -1.74664
H         -0.80314        2.74832       -2.09169
H         -1.61320        3.22239       -0.54498
H         -2.60242       -0.05897       -1.08100
H         -4.48930       -5.78580       -1.10280
H         -5.21790       -4.72900       -3.24060
H         -4.31120       -2.51840       -3.91350
H         -2.69440       -1.33570       -2.48890
H         -3.42510       -6.41070        1.09340
H         -2.14990       -6.53150        3.23270
H         -0.67960       -4.65240        3.91810
H         -0.45080       -2.65340        2.50310
H          0.62494       -1.91891        1.10462
H          1.83158        0.20558        1.11177
H          0.88063        2.19677        0.01114
35

C          0.38312        1.32183       -2.49000
C         -0.01303        0.66366       -1.20070
C         -0.72272       -0.54824       -1.19934
C         -1.09700       -1.17010        0.00980
N         -1.82610       -2.42650        0.00770
C         -2.69980       -2.88100       -0.94140
C         -3.19780       -4.12360       -0.59630
C         -4.10810       -4.81590       -1.39440
C         -4.51400       -4.21800       -2.59660
C         -4.00050       -2.96240       -2.97660
C         -3.08330       -2.28360       -2.15460
C         -1.78920       -3.41550        0.95170
C         -2.62100       -4.46250        0.59950
C         -2.77240       -5.60040        1.39080
C         -2.05390       -5.66310        2.59390
C         -1.21790       -4.59700        2.98080
C         -1.08150       -3.45920        2.16500
C         -0.74183       -0.54146        1.21978
C         -0.03678        0.66430        1.22007
C          0.32715        1.26566        0.01611
H          0.04981        0.73173       -3.37017
H          1.48862        1.41913       -2.53325
H         -0.07325        2.33209       -2.55043
H         -1.00308       -0.98530       -2.14606
H         -4.48930       -5.78580       -1.10280
H         -5.21790       -4.72900       -3.24060
H         -4.31120       -2.51840       -3.91350
H         -2.69440       -1.33570       -2.48890
H         -3.42510       -6.41070        1.09340
H         -2.14990       -6.53150        3.23270
H         -0.67960       -4.65240        3.91810
H         -0.45080       -2.65340        2.50310
H         -0.97923       -0.98978        2.17268
H          0.23434        1.13072        2.15856
H          0.87510        2.19995        0.03095
35

C         -0.69173        1.94505       -2.17676
C         -0.53429        0.96590       -1.05032
C         -1.24191       -0.24720       -1.04664
C         -1.09700       -1.17010        0.00980
N         -1.82610       -2.42650        0.00770
C         -2.69980       -2.88100       -0.94140
C         -3.19780       -4.12360       -0.59630
C         -4.10810       -4.81590       -1.39440
C         -4.51400       -4.21800       -2.59660
C         -4.00050       -2.96240       -2.97660
C         -3.08330       -2.28360       -2.15460
C         -1.78920       -3.41550        0.95170
C         -2.62100       -4.46250        0.59950
C         -2.77240       -5.60040        1.39080
C         -2.05390       -5.66310        2.59390
C         -1.21790       -4.59700        2.98080
C         -1.08150       -3.45920        2.16500
C         -0.22355       -0.84197        1.06563
C          0.48024        0.36453        1.06388
C          0.32706        1.26571        0.01126
H         -1.40217        1.57362       -2.94574
H          0.29246        2.11349       -2.66304
H         -1.07258        2.91073       -1.78308
H         -1.92447       -0.45109       -1.85810
H         -4.48930       -5.78580       -1.10280
H         -5.21790       -4.72900       -3.24060
H         -4.31120       -2.51840       -3.91350
H         -2.69440       -1.33570       -2.48890
H         -3.42510       -6.41070        1.09340
H         -2.14990       -6.53150        3.23270
H         -0.67960       -4.65240        3.91810
H         -0.45080       -2.65340        2.50310
H         -0.05508       -1.52559        1.88395
H          1.15259        0.59832        1.87941
H          0.88013        2.19704        0.02189
35

C          1.42669        0.70841        2.18962
C          0.48811        0.36905        1.06878
C         -0.21411       -0.84716        1.06101
C         -1.09700       -1.17010        0.00980
N         -1.82610       -2.42650        0.00770
C         -2.69980       -2.88100       -0.94140
C         -3.19780       -4.12360       -0.59630
C         -4.10810       -4.81590       -1.39440
C         -4.51400       -4.21800       -2.59660
C         -4.00050       -2.96240       -2.97660
C         -3.08330       -2.28360       -2.15460
C         -1.78920       -3.41550        0.95170
C         -2.62100       -4.46250        0.59950
C         -2.77240       -5.60040        1.39080
C         -2.05390       -5.66310        2.59390
C         -1.21790       -4.59700        2.98080
C         -1.08150       -3.45920        2.16500
C         -1.25515       -0.23981       -1.03658
C         -0.55678        0.96982       -1.03075
C          0.31132        1.27484        0.01661
H          1.46374       -0.09935        2.95130
H          1.08916        1.64222        2.68716
H          2.45043        0.86033        1.78780
H         -0.04504       -1.54796        1.86488
H         -4.48930       -5.78580       -1.10280
H         -5.21790       -4.72900       -3.24060
H         -4.31120       -2.51840       -3.91350
H         -2.69440       -1.33570       -2.48890
H         -3.42510       -6.41070        1.09340
H         -2.14990       -6.53150        3.23270
H         -0.67960       -4.65240        3.91810
H         -0.45080       -2.65340        2.50310
H         -1.93979       -0.42564       -1.85028
H         -0.69486        1.67663       -1.83894
H          0.84544        2.21719        0.00925
35

C          2.21777        0.25085        1.29147
C          0.87241        0.14676        0.63452
C          0.16739       -1.06783        0.62598
C         -1.09700       -1.17010        0.00980
N         -1.82610       -2.42650        0.00770
C         -2.69980       -2.88100       -0.94140
C         -3.19780       -4.12360       -0.59630
C         -4.10810       -4.81590       -1.39440
C         -4.51400       -4.21800       -2.59660
C         -4.00050       -2.96240       -2.97660
C         -3.08330       -2.28360       -2.15460
C         -1.78920       -3.41550        0.95170
C         -2.62100       -4.46250        0.59950
C         -2.77240       -5.60040        1.39080
C         -2.05390       -5.66310        2.59390
C         -1.21790       -4.59700        2.98080
C         -1.08150       -3.45920        2.16500
C         -1.63524       -0.01997       -0.60083
C         -0.93489        1.18851       -0.59396
C          0.31351        1.27356        0.02075
H          2.53181       -0.71713        1.73692
H          2.17860        1.01099        2.10025
H          2.97782        0.55636        0.54211
H          0.62458       -1.93523        1.07819
H         -4.48930       -5.78580       -1.10280
H         -5.21790       -4.72900       -3.24060
H         -4.31120       -2.51840       -3.91350
H         -2.69440       -1.33570       -2.48890
H         -3.42510       -6.41070        1.09340
H         -2.14990       -6.53150        3.23270
H         -0.67960       -4.65240        3.91810
H         -0.45080       -2.65340        2.50310
H         -2.61146       -0.03718       -1.06133
H         -1.36563        2.06458       -1.06169
H          0.84506        2.21740        0.02000
