
 OpenBabel02012213393D

 35 38  0  0  0  0  0  0  0  0999 V2000
   -1.6278    2.4478   -1.0426 C   0  0  0  0  0  0  0  0  0  0  0  0
   -1.0049    1.2070   -0.4723 C   0  0  0  0  0  0  0  0  0  0  0  0
   -1.7071   -0.0068   -0.4550 C   0  0  0  0  0  0  0  0  0  0  0  0
   -1.1061   -1.1793    0.0284 C   0  0  0  0  0  0  0  0  0  0  0  0
   -1.8217   -2.4232    0.0134 N   0  0  0  0  0  0  0  0  0  0  0  0
   -2.7184   -2.8376   -0.9832 C   0  0  0  0  0  0  0  0  0  0  0  0
   -3.2142   -4.0909   -0.6125 C   0  0  0  0  0  0  0  0  0  0  0  0
   -4.1599   -4.7357   -1.4425 C   0  0  0  0  0  0  0  0  0  0  0  0
   -4.5800   -4.1320   -2.6287 C   0  0  0  0  0  0  0  0  0  0  0  0
   -4.0494   -2.9097   -3.0118 C   0  0  0  0  0  0  0  0  0  0  0  0
   -3.1031   -2.2587   -2.2139 C   0  0  0  0  0  0  0  0  0  0  0  0
   -1.7412   -3.4219    0.9953 C   0  0  0  0  0  0  0  0  0  0  0  0
   -2.5881   -4.4647    0.6100 C   0  0  0  0  0  0  0  0  0  0  0  0
   -2.6913   -5.6128    1.4287 C   0  0  0  0  0  0  0  0  0  0  0  0
   -1.9648   -5.6938    2.6176 C   0  0  0  0  0  0  0  0  0  0  0  0
   -1.1601   -4.6367    3.0138 C   0  0  0  0  0  0  0  0  0  0  0  0
   -1.0522   -3.4856    2.2271 C   0  0  0  0  0  0  0  0  0  0  0  0
    0.2038   -1.1165    0.5182 C   0  0  0  0  0  0  0  0  0  0  0  0
    0.8896    0.0990    0.5466 C   0  0  0  0  0  0  0  0  0  0  0  0
    0.2914    1.2553    0.0498 C   0  0  0  0  0  0  0  0  0  0  0  0
   -2.6201    2.2445   -1.4589 H   0  0  0  0  0  0  0  0  0  0  0  0
   -1.0045    2.8402   -1.8534 H   0  0  0  0  0  0  0  0  0  0  0  0
   -1.7338    3.2116   -0.2666 H   0  0  0  0  0  0  0  0  0  0  0  0
   -2.7410   -0.0113   -0.7901 H   0  0  0  0  0  0  0  0  0  0  0  0
   -4.5582   -5.7069   -1.1622 H   0  0  0  0  0  0  0  0  0  0  0  0
   -5.3101   -4.6312   -3.2603 H   0  0  0  0  0  0  0  0  0  0  0  0
   -4.3642   -2.4544   -3.9481 H   0  0  0  0  0  0  0  0  0  0  0  0
   -2.6745   -1.3266   -2.5672 H   0  0  0  0  0  0  0  0  0  0  0  0
   -3.3418   -6.4328    1.1377 H   0  0  0  0  0  0  0  0  0  0  0  0
   -2.0459   -6.5800    3.2417 H   0  0  0  0  0  0  0  0  0  0  0  0
   -0.6136   -4.6959    3.9522 H   0  0  0  0  0  0  0  0  0  0  0  0
   -0.4514   -2.6587    2.5915 H   0  0  0  0  0  0  0  0  0  0  0  0
    0.7338   -2.0068    0.8461 H   0  0  0  0  0  0  0  0  0  0  0  0
    1.9015    0.1427    0.9457 H   0  0  0  0  0  0  0  0  0  0  0  0
    0.8430    2.1926    0.0645 H   0  0  0  0  0  0  0  0  0  0  0  0
  1  2  1  0  0  0  0
  1 21  1  0  0  0  0
  1 22  1  0  0  0  0
  1 23  1  0  0  0  0
  2  3  1  0  0  0  0
  2 20  2  0  0  0  0
  3  4  2  0  0  0  0
  3 24  1  0  0  0  0
  4  5  1  0  0  0  0
  4 18  1  0  0  0  0
  5  6  1  0  0  0  0
  5 12  1  0  0  0  0
  6  7  1  0  0  0  0
  6 11  2  0  0  0  0
  7  8  2  0  0  0  0
  7 13  1  0  0  0  0
  8  9  1  0  0  0  0
  8 25  1  0  0  0  0
  9 10  2  0  0  0  0
  9 26  1  0  0  0  0
 10 11  1  0  0  0  0
 10 27  1  0  0  0  0
 11 28  1  0  0  0  0
 12 13  1  0  0  0  0
 12 17  2  0  0  0  0
 13 14  2  0  0  0  0
 14 15  1  0  0  0  0
 14 29  1  0  0  0  0
 15 16  2  0  0  0  0
 15 30  1  0  0  0  0
 16 17  1  0  0  0  0
 16 31  1  0  0  0  0
 17 32  1  0  0  0  0
 18 19  2  0  0  0  0
 18 33  1  0  0  0  0
 19 20  1  0  0  0  0
 19 34  1  0  0  0  0
 20 35  1  0  0  0  0
M  END
