
  xtb     02032211353D
 xtb: 6.4.1 (23d549d)
 53 53  0     0  0            999 V2000
   -2.6263    2.3158   -1.6606 C   0  0  0  0  0  0  0  0  0  0  0  0
   -1.4623    2.9565   -1.5811 C   0  0  0  0  0  0  0  0  0  0  0  0
   -0.2140    2.3627   -1.1839 C   0  0  0  0  0  0  0  0  0  0  0  0
    0.0446    1.1359   -0.6297 C   0  0  0  0  0  0  0  0  0  0  0  0
    1.4079    0.8932   -0.3783 C   0  0  0  0  0  0  0  0  0  0  0  0
    1.8891   -0.4042    0.1921 C   0  0  0  0  0  0  0  0  0  0  0  0
    2.0908   -1.4365   -0.9242 C   0  0  0  0  0  0  0  0  0  0  0  0
    2.5956   -2.7906   -0.4207 C   0  0  0  0  0  0  0  0  0  0  0  0
    1.7422   -3.4292    0.6775 C   0  0  0  0  0  0  0  0  0  0  0  0
    0.2772   -3.6129    0.2878 C   0  0  0  0  0  0  0  0  0  0  0  0
   -0.5442   -4.1655    1.4502 C   0  0  0  0  0  0  0  0  0  0  0  0
   -2.0403   -4.2736    1.1474 C   0  0  0  0  0  0  0  0  0  0  0  0
   -2.7144   -2.9596    0.7424 C   0  0  0  0  0  0  0  0  0  0  0  0
   -2.5149   -1.8281    1.7489 C   0  0  0  0  0  0  0  0  0  0  0  0
   -3.3047   -0.5788    1.3648 C   0  0  0  0  0  0  0  0  0  0  0  0
   -3.0067    0.5980    2.2911 C   0  0  0  0  0  0  0  0  0  0  0  0
   -3.7822    1.8481    1.8946 C   0  0  0  0  0  0  0  0  0  0  0  0
    2.2126    1.9471   -0.7576 C   0  0  0  0  0  0  0  0  0  0  0  0
    3.6434    2.0423   -0.6775 C   0  0  0  0  0  0  0  0  0  0  0  0
    4.3626    3.0858   -1.0831 C   0  0  0  0  0  0  0  0  0  0  0  0
    1.2611    3.2549   -1.4019 S   0  0  0  0  0  0  0  0  0  0  0  0
   -3.5253    2.8219   -1.9650 H   0  0  0  0  0  0  0  0  0  0  0  0
   -2.7183    1.2668   -1.4384 H   0  0  0  0  0  0  0  0  0  0  0  0
   -1.4073    4.0056   -1.8420 H   0  0  0  0  0  0  0  0  0  0  0  0
   -0.7269    0.4261   -0.3901 H   0  0  0  0  0  0  0  0  0  0  0  0
    1.1389   -0.7676    0.8956 H   0  0  0  0  0  0  0  0  0  0  0  0
    2.8245   -0.2666    0.7365 H   0  0  0  0  0  0  0  0  0  0  0  0
    2.8155   -1.0402   -1.6403 H   0  0  0  0  0  0  0  0  0  0  0  0
    1.1495   -1.5677   -1.4610 H   0  0  0  0  0  0  0  0  0  0  0  0
    3.6118   -2.6689   -0.0365 H   0  0  0  0  0  0  0  0  0  0  0  0
    2.6468   -3.4718   -1.2737 H   0  0  0  0  0  0  0  0  0  0  0  0
    1.7976   -2.8180    1.5810 H   0  0  0  0  0  0  0  0  0  0  0  0
    2.1718   -4.4034    0.9248 H   0  0  0  0  0  0  0  0  0  0  0  0
    0.2051   -4.2872   -0.5686 H   0  0  0  0  0  0  0  0  0  0  0  0
   -0.1354   -2.6507   -0.0102 H   0  0  0  0  0  0  0  0  0  0  0  0
   -0.3989   -3.5289    2.3256 H   0  0  0  0  0  0  0  0  0  0  0  0
   -0.1720   -5.1596    1.7112 H   0  0  0  0  0  0  0  0  0  0  0  0
   -2.5402   -4.6647    2.0372 H   0  0  0  0  0  0  0  0  0  0  0  0
   -2.1889   -4.9976    0.3423 H   0  0  0  0  0  0  0  0  0  0  0  0
   -3.7855   -3.1480    0.6320 H   0  0  0  0  0  0  0  0  0  0  0  0
   -2.3442   -2.6426   -0.2349 H   0  0  0  0  0  0  0  0  0  0  0  0
   -1.4565   -1.5670    1.8062 H   0  0  0  0  0  0  0  0  0  0  0  0
   -2.8267   -2.1641    2.7406 H   0  0  0  0  0  0  0  0  0  0  0  0
   -4.3743   -0.8002    1.3912 H   0  0  0  0  0  0  0  0  0  0  0  0
   -3.0570   -0.2976    0.3381 H   0  0  0  0  0  0  0  0  0  0  0  0
   -1.9363    0.8173    2.2644 H   0  0  0  0  0  0  0  0  0  0  0  0
   -3.2619    0.3201    3.3165 H   0  0  0  0  0  0  0  0  0  0  0  0
   -3.5024    2.1691    0.8930 H   0  0  0  0  0  0  0  0  0  0  0  0
   -3.5722    2.6621    2.5846 H   0  0  0  0  0  0  0  0  0  0  0  0
   -4.8527    1.6539    1.9082 H   0  0  0  0  0  0  0  0  0  0  0  0
    4.1405    1.1779   -0.2572 H   0  0  0  0  0  0  0  0  0  0  0  0
    3.8967    3.9578   -1.5117 H   0  0  0  0  0  0  0  0  0  0  0  0
    5.4349    3.0997   -1.0008 H   0  0  0  0  0  0  0  0  0  0  0  0
  1  2  2  0  0  0  0
  2  3  1  0  0  0  0
  3  4  2  0  0  0  0
  4  5  4  0  0  0  0
  5  6  1  0  0  0  0
  6  7  1  0  0  0  0
  7  8  1  0  0  0  0
  8  9  1  0  0  0  0
  9 10  1  0  0  0  0
 10 11  1  0  0  0  0
 11 12  1  0  0  0  0
 12 13  1  0  0  0  0
 13 14  1  0  0  0  0
 14 15  1  0  0  0  0
 15 16  1  0  0  0  0
 16 17  1  0  0  0  0
  5 18  4  0  0  0  0
 18 19  1  0  0  0  0
 19 20  2  0  0  0  0
  3 21  1  0  0  0  0
 18 21  1  0  0  0  0
  1 22  1  0  0  0  0
  1 23  1  0  0  0  0
  2 24  1  0  0  0  0
  4 25  1  0  0  0  0
  6 26  1  0  0  0  0
  6 27  1  0  0  0  0
  7 28  1  0  0  0  0
  7 29  1  0  0  0  0
  8 30  1  0  0  0  0
  8 31  1  0  0  0  0
  9 32  1  0  0  0  0
  9 33  1  0  0  0  0
 10 34  1  0  0  0  0
 10 35  1  0  0  0  0
 11 36  1  0  0  0  0
 11 37  1  0  0  0  0
 12 38  1  0  0  0  0
 12 39  1  0  0  0  0
 13 40  1  0  0  0  0
 13 41  1  0  0  0  0
 14 42  1  0  0  0  0
 14 43  1  0  0  0  0
 15 44  1  0  0  0  0
 15 45  1  0  0  0  0
 16 46  1  0  0  0  0
 16 47  1  0  0  0  0
 17 48  1  0  0  0  0
 17 49  1  0  0  0  0
 17 50  1  0  0  0  0
 19 51  1  0  0  0  0
 20 52  1  0  0  0  0
 20 53  1  0  0  0  0
M  END
