24

C          1.11410        2.90390        0.02160
C          1.03040        1.39740        0.01540
C          2.22170        0.65980        0.00890
C          2.20110       -0.73140        0.00800
C          0.98890       -1.43390        0.01360
C          1.02820       -2.94200        0.01730
C         -0.23330       -0.71330        0.01660
C         -1.47840       -1.37980        0.01910
C         -2.67250       -0.65990        0.02190
C         -2.65210        0.73130        0.02270
C         -1.43750        1.41590        0.02130
C         -0.21210        0.71310        0.01780
H          2.16610        3.26060        0.01910
H          0.62210        3.30320        0.93350
H          0.61330        3.31360       -0.88060
H          3.18050        1.16370        0.00590
H          3.14480       -1.26330        0.00420
H          2.06950       -3.32940        0.01460
H          0.51600       -3.33560       -0.88570
H          0.52460       -3.32810        0.92850
H         -1.54380       -2.45940        0.01850
H         -3.61940       -1.18470        0.02290
H         -3.58320        1.28350        0.02480
H         -1.47120        2.49680        0.02220
