
  xtb     02032211353D
 xtb: 6.4.1 (23d549d)
 23 23  0     0  0            999 V2000
   -3.8255    1.4102   -0.3126 C   0  0  0  0  0  0  0  0  0  0  0  0
   -3.3847    0.2010    0.0139 C   0  0  0  0  0  0  0  0  0  0  0  0
   -1.9927   -0.2237    0.0787 C   0  0  0  0  0  0  0  0  0  0  0  0
   -1.6990   -1.5693    0.3159 C   0  0  0  0  0  0  0  0  0  0  0  0
   -0.3965   -2.0172    0.3578 C   0  0  0  0  0  0  0  0  0  0  0  0
    0.6784   -1.1456    0.1780 C   0  0  0  0  0  0  0  0  0  0  0  0
    2.0288   -1.7036    0.1151 C   0  0  0  0  0  0  0  0  0  0  0  0
    2.9978   -1.2567   -0.6746 C   0  0  0  0  0  0  0  0  0  0  0  0
    0.3927    0.2173   -0.0033 C   0  0  0  0  0  0  0  0  0  0  0  0
    1.4392    1.2822   -0.0644 C   0  0  0  0  0  0  0  0  0  0  0  0
    1.4112    2.1920   -0.8450 O   0  0  0  0  0  0  0  0  0  0  0  0
    2.3950    1.2185    0.8858 O   0  0  0  0  0  0  0  0  0  0  0  0
   -0.9220    0.6548   -0.0734 C   0  0  0  0  0  0  0  0  0  0  0  0
   -4.8785    1.6316   -0.3389 H   0  0  0  0  0  0  0  0  0  0  0  0
   -3.1665    2.2207   -0.5716 H   0  0  0  0  0  0  0  0  0  0  0  0
   -4.1020   -0.5755    0.2507 H   0  0  0  0  0  0  0  0  0  0  0  0
   -2.5083   -2.2720    0.4551 H   0  0  0  0  0  0  0  0  0  0  0  0
   -0.1956   -3.0679    0.5116 H   0  0  0  0  0  0  0  0  0  0  0  0
    2.1870   -2.5935    0.7128 H   0  0  0  0  0  0  0  0  0  0  0  0
    2.8622   -0.4080   -1.3248 H   0  0  0  0  0  0  0  0  0  0  0  0
    3.9617   -1.7344   -0.7088 H   0  0  0  0  0  0  0  0  0  0  0  0
    2.3246    0.4160    1.4198 H   0  0  0  0  0  0  0  0  0  0  0  0
   -1.0922    1.7082   -0.2311 H   0  0  0  0  0  0  0  0  0  0  0  0
  1  2  2  0  0  0  0
  2  3  1  0  0  0  0
  3  4  4  0  0  0  0
  4  5  4  0  0  0  0
  5  6  4  0  0  0  0
  6  7  1  0  0  0  0
  7  8  2  0  0  0  0
  6  9  4  0  0  0  0
  9 10  1  0  0  0  0
 10 11  2  0  0  0  0
 10 12  1  0  0  0  0
  3 13  4  0  0  0  0
  9 13  4  0  0  0  0
  1 14  1  0  0  0  0
  1 15  1  0  0  0  0
  2 16  1  0  0  0  0
  4 17  1  0  0  0  0
  5 18  1  0  0  0  0
  7 19  1  0  0  0  0
  8 20  1  0  0  0  0
  8 21  1  0  0  0  0
 12 22  1  0  0  0  0
 13 23  1  0  0  0  0
M  END
