
 OpenBabel02012214073D

 17 17  0  0  0  0  0  0  0  0999 V2000
    2.9095   -0.0633   -0.0195 C   0  0  0  0  0  0  0  0  0  0  0  0
    1.4109   -0.0032   -0.0199 C   0  0  0  0  0  0  0  0  0  0  0  0
    0.7345    1.2246   -0.0154 C   0  0  0  0  0  0  0  0  0  0  0  0
   -0.6616    1.2526   -0.0172 C   0  0  0  0  0  0  0  0  0  0  0  0
   -1.3746    0.0454   -0.0236 C   0  0  0  0  0  0  0  0  0  0  0  0
   -2.8712    0.0308   -0.0278 C   0  0  0  0  0  0  0  0  0  0  0  0
   -0.6980   -1.1353   -0.0272 N   0  0  0  0  0  0  0  0  0  0  0  0
    0.6607   -1.1866   -0.0253 C   0  0  0  0  0  0  0  0  0  0  0  0
    3.3573    0.9534   -0.0161 H   0  0  0  0  0  0  0  0  0  0  0  0
    3.2611   -0.5994   -0.9260 H   0  0  0  0  0  0  0  0  0  0  0  0
    3.2611   -0.6058    0.8832 H   0  0  0  0  0  0  0  0  0  0  0  0
    1.2840    2.1576   -0.0112 H   0  0  0  0  0  0  0  0  0  0  0  0
   -1.1785    2.2042   -0.0143 H   0  0  0  0  0  0  0  0  0  0  0  0
   -3.2896    1.0599   -0.0240 H   0  0  0  0  0  0  0  0  0  0  0  0
   -3.2387   -0.5044    0.8727 H   0  0  0  0  0  0  0  0  0  0  0  0
   -3.2331   -0.4952   -0.9359 H   0  0  0  0  0  0  0  0  0  0  0  0
    1.1562   -2.1492   -0.0284 H   0  0  0  0  0  0  0  0  0  0  0  0
  1  2  1  0  0  0  0
  1  9  1  0  0  0  0
  1 10  1  0  0  0  0
  1 11  1  0  0  0  0
  2  3  1  0  0  0  0
  2  8  2  0  0  0  0
  3  4  2  0  0  0  0
  3 12  1  0  0  0  0
  4  5  1  0  0  0  0
  4 13  1  0  0  0  0
  5  6  1  0  0  0  0
  5  7  2  0  0  0  0
  6 14  1  0  0  0  0
  6 15  1  0  0  0  0
  6 16  1  0  0  0  0
  7  8  1  0  0  0  0
  8 17  1  0  0  0  0
M  END
