
  xtb     02032210413D
 xtb: 6.4.1 (23d549d)
 36 39  0     0  0            999 V2000
    0.9331    0.0108    1.2226 f   0  0  0  0  0  0  0  0  0  0  0  0
    2.2463    0.0735    1.4536 c   0  0  0  0  0  0  0  0  0  0  0  0
    2.4676   -0.2117    2.7339 f   0  0  0  0  0  0  0  0  0  0  0  0
    3.1318    0.3742    0.5150 c   0  0  0  0  0  0  0  0  0  0  0  0
    4.5769    0.4716    0.6289 c   0  0  0  0  0  0  0  0  0  0  0  0
    5.2569    0.3166    1.8346 c   0  0  0  0  0  0  0  0  0  0  0  0
    6.6378    0.4140    1.8447 c   0  0  0  0  0  0  0  0  0  0  0  0
    7.6189    0.3219    2.8904 c   0  0  0  0  0  0  0  0  0  0  0  0
    7.5397    0.0834    4.2559 c   0  0  0  0  0  0  0  0  0  0  0  0
    8.7105    0.0322    4.9855 c   0  0  0  0  0  0  0  0  0  0  0  0
    9.9482    0.2000    4.3681 c   0  0  0  0  0  0  0  0  0  0  0  0
   10.0519    0.4398    3.0112 c   0  0  0  0  0  0  0  0  0  0  0  0
    8.8772    0.5169    2.2773 c   0  0  0  0  0  0  0  0  0  0  0  0
    8.6985    0.7193    0.9212 n   0  0  0  0  0  0  0  0  0  0  0  0
    9.7195    0.9420   -0.0154 c   0  0  0  0  0  0  0  0  0  0  0  0
    9.7813    0.1767   -1.1761 c   0  0  0  0  0  0  0  0  0  0  0  0
   10.7880    0.4008   -2.0968 c   0  0  0  0  0  0  0  0  0  0  0  0
   11.7420    1.3778   -1.8649 c   0  0  0  0  0  0  0  0  0  0  0  0
   11.6835    2.1373   -0.7081 c   0  0  0  0  0  0  0  0  0  0  0  0
   10.6749    1.9273    0.2140 c   0  0  0  0  0  0  0  0  0  0  0  0
    7.3518    0.6576    0.6469 c   0  0  0  0  0  0  0  0  0  0  0  0
    6.6774    0.8433   -0.5531 c   0  0  0  0  0  0  0  0  0  0  0  0
    5.3035    0.7450   -0.5436 c   0  0  0  0  0  0  0  0  0  0  0  0
    2.7104    0.5628   -0.4620 h   0  0  0  0  0  0  0  0  0  0  0  0
    4.7292    0.1285    2.7544 h   0  0  0  0  0  0  0  0  0  0  0  0
    6.5814   -0.0627    4.7304 h   0  0  0  0  0  0  0  0  0  0  0  0
    8.6723   -0.1498    6.0491 h   0  0  0  0  0  0  0  0  0  0  0  0
   10.8475    0.1373    4.9627 h   0  0  0  0  0  0  0  0  0  0  0  0
   11.0160    0.5512    2.5384 h   0  0  0  0  0  0  0  0  0  0  0  0
    9.0481   -0.5987   -1.3417 h   0  0  0  0  0  0  0  0  0  0  0  0
   10.8324   -0.1963   -2.9955 h   0  0  0  0  0  0  0  0  0  0  0  0
   12.5293    1.5468   -2.5838 h   0  0  0  0  0  0  0  0  0  0  0  0
   12.4229    2.9029   -0.5257 h   0  0  0  0  0  0  0  0  0  0  0  0
   10.6133    2.5310    1.1071 h   0  0  0  0  0  0  0  0  0  0  0  0
    7.2091    1.0683   -1.4652 h   0  0  0  0  0  0  0  0  0  0  0  0
    4.7624    0.8828   -1.4681 h   0  0  0  0  0  0  0  0  0  0  0  0
  1  2  1  0  0  0  0
  2  3  1  0  0  0  0
  2  4  2  0  0  0  0
  4  5  1  0  0  0  0
  5  6  4  0  0  0  0
  6  7  4  0  0  0  0
  7  8  1  0  0  0  0
  8  9  4  0  0  0  0
  9 10  4  0  0  0  0
 10 11  4  0  0  0  0
 11 12  4  0  0  0  0
  8 13  4  0  0  0  0
 12 13  4  0  0  0  0
 13 14  1  0  0  0  0
 14 15  1  0  0  0  0
 15 16  4  0  0  0  0
 16 17  4  0  0  0  0
 17 18  4  0  0  0  0
 18 19  4  0  0  0  0
 15 20  4  0  0  0  0
 19 20  4  0  0  0  0
  7 21  4  0  0  0  0
 14 21  1  0  0  0  0
 21 22  4  0  0  0  0
  5 23  4  0  0  0  0
 22 23  4  0  0  0  0
  4 24  1  0  0  0  0
  6 25  1  0  0  0  0
  9 26  1  0  0  0  0
 10 27  1  0  0  0  0
 11 28  1  0  0  0  0
 12 29  1  0  0  0  0
 16 30  1  0  0  0  0
 17 31  1  0  0  0  0
 18 32  1  0  0  0  0
 19 33  1  0  0  0  0
 20 34  1  0  0  0  0
 22 35  1  0  0  0  0
 23 36  1  0  0  0  0
M  END
