
  xtb     02032211353D
 xtb: 6.4.1 (23d549d)
 22 22  0     0  0            999 V2000
    3.6897    1.0376    0.0430 C   0  0  0  0  0  0  0  0  0  0  0  0
    2.8717   -0.0086    0.0037 C   0  0  0  0  0  0  0  0  0  0  0  0
    1.4180    0.0193   -0.0030 C   0  0  0  0  0  0  0  0  0  0  0  0
    0.6734    1.1969   -0.0034 C   0  0  0  0  0  0  0  0  0  0  0  0
   -0.7097    1.1952   -0.0112 C   0  0  0  0  0  0  0  0  0  0  0  0
   -1.4139    2.3651   -0.0112 O   0  0  0  0  0  0  0  0  0  0  0  0
   -1.4181   -0.0195   -0.0160 C   0  0  0  0  0  0  0  0  0  0  0  0
   -2.8718    0.0078   -0.0241 C   0  0  0  0  0  0  0  0  0  0  0  0
   -3.6887   -1.0358    0.0681 C   0  0  0  0  0  0  0  0  0  0  0  0
   -0.6735   -1.1971   -0.0187 C   0  0  0  0  0  0  0  0  0  0  0  0
    0.7095   -1.1954   -0.0129 C   0  0  0  0  0  0  0  0  0  0  0  0
    1.4135   -2.3655   -0.0171 O   0  0  0  0  0  0  0  0  0  0  0  0
    4.7581    0.9076    0.0451 H   0  0  0  0  0  0  0  0  0  0  0  0
    3.3430    2.0564    0.0764 H   0  0  0  0  0  0  0  0  0  0  0  0
    3.2897   -1.0053   -0.0241 H   0  0  0  0  0  0  0  0  0  0  0  0
    1.1918    2.1455    0.0001 H   0  0  0  0  0  0  0  0  0  0  0  0
   -0.7984    3.1074   -0.0083 H   0  0  0  0  0  0  0  0  0  0  0  0
   -3.2903    1.0012   -0.1068 H   0  0  0  0  0  0  0  0  0  0  0  0
   -3.3404   -2.0500    0.1664 H   0  0  0  0  0  0  0  0  0  0  0  0
   -4.7573   -0.9082    0.0535 H   0  0  0  0  0  0  0  0  0  0  0  0
   -1.1923   -2.1455   -0.0313 H   0  0  0  0  0  0  0  0  0  0  0  0
    0.7976   -3.1075   -0.0256 H   0  0  0  0  0  0  0  0  0  0  0  0
  1  2  2  0  0  0  0
  2  3  1  0  0  0  0
  3  4  4  0  0  0  0
  4  5  4  0  0  0  0
  5  6  1  0  0  0  0
  5  7  4  0  0  0  0
  7  8  1  0  0  0  0
  8  9  2  0  0  0  0
  7 10  4  0  0  0  0
  3 11  4  0  0  0  0
 10 11  4  0  0  0  0
 11 12  1  0  0  0  0
  1 13  1  0  0  0  0
  1 14  1  0  0  0  0
  2 15  1  0  0  0  0
  4 16  1  0  0  0  0
  6 17  1  0  0  0  0
  8 18  1  0  0  0  0
  9 19  1  0  0  0  0
  9 20  1  0  0  0  0
 10 21  1  0  0  0  0
 12 22  1  0  0  0  0
M  END
