
  xtb     02032211343D
 xtb: 6.4.1 (23d549d)
 20 20  0     0  0            999 V2000
   -1.8362    3.2068   -0.0774 C   0  0  0  0  0  0  0  0  0  0  0  0
   -2.3776    2.0029    0.0619 C   0  0  0  0  0  0  0  0  0  0  0  0
   -1.6725    0.7253    0.0387 C   0  0  0  0  0  0  0  0  0  0  0  0
   -2.4237   -0.4509    0.0180 C   0  0  0  0  0  0  0  0  0  0  0  0
   -1.7716   -1.6671   -0.0086 C   0  0  0  0  0  0  0  0  0  0  0  0
   -2.5040   -2.8001   -0.0312 F   0  0  0  0  0  0  0  0  0  0  0  0
   -0.3955   -1.7665   -0.0101 C   0  0  0  0  0  0  0  0  0  0  0  0
    0.3674   -0.5965    0.0154 C   0  0  0  0  0  0  0  0  0  0  0  0
    1.8160   -0.7371    0.0169 C   0  0  0  0  0  0  0  0  0  0  0  0
    2.7372    0.2149   -0.0018 C   0  0  0  0  0  0  0  0  0  0  0  0
    2.5558    1.5291   -0.0273 F   0  0  0  0  0  0  0  0  0  0  0  0
    4.0428   -0.0386   -0.0012 F   0  0  0  0  0  0  0  0  0  0  0  0
   -0.2818    0.6353    0.0410 C   0  0  0  0  0  0  0  0  0  0  0  0
   -2.4425    4.0956   -0.0507 H   0  0  0  0  0  0  0  0  0  0  0  0
   -0.7818    3.3613   -0.2284 H   0  0  0  0  0  0  0  0  0  0  0  0
   -3.4490    1.9204    0.1947 H   0  0  0  0  0  0  0  0  0  0  0  0
   -3.5023   -0.4235    0.0186 H   0  0  0  0  0  0  0  0  0  0  0  0
    0.0707   -2.7387   -0.0294 H   0  0  0  0  0  0  0  0  0  0  0  0
    2.2015   -1.7461    0.0301 H   0  0  0  0  0  0  0  0  0  0  0  0
    0.2967    1.5417    0.0726 H   0  0  0  0  0  0  0  0  0  0  0  0
  1  2  2  0  0  0  0
  2  3  1  0  0  0  0
  3  4  4  0  0  0  0
  4  5  4  0  0  0  0
  5  6  1  0  0  0  0
  5  7  4  0  0  0  0
  7  8  4  0  0  0  0
  8  9  1  0  0  0  0
  9 10  2  0  0  0  0
 10 11  1  0  0  0  0
 10 12  1  0  0  0  0
  3 13  4  0  0  0  0
  8 13  4  0  0  0  0
  1 14  1  0  0  0  0
  1 15  1  0  0  0  0
  2 16  1  0  0  0  0
  4 17  1  0  0  0  0
  7 18  1  0  0  0  0
  9 19  1  0  0  0  0
 13 20  1  0  0  0  0
M  END
