25

C          2.38214       -1.08360        0.14266
C          2.24340        0.19170       -0.24500
C          3.03020        1.34310        0.28420
C          4.21800        1.67770       -0.36670
C          4.99290        2.74380        0.07280
C          4.61440        3.52560        1.17980
N          5.47290        4.62950        1.51120
C          6.26580        5.35653        0.54016
C          3.41500        3.18190        1.88580
C          2.99110        3.89600        3.13780
C          1.72534        4.08411        3.54221
C          2.64100        2.09480        1.40820
H          1.75420       -1.84713       -0.30514
H          3.09176       -1.40298        0.89361
H          1.49033        0.39546       -1.00201
H          4.54900        1.11360       -1.23070
H          5.89880        2.97470       -0.47420
H          5.91372        4.58435        2.44362
H          6.35194        4.79708       -0.41529
H          7.29978        5.48900        0.92549
H          5.84063        6.36934        0.38390
H          3.73798        4.28798        3.80616
H          0.85900        3.75474        2.98676
H          1.53853        4.60726        4.47502
H          1.74530        1.81060        1.92360
25

C          0.91083        0.06793       -0.17526
C          2.24340        0.19170       -0.24500
C          3.03020        1.34310        0.28420
C          4.21800        1.67770       -0.36670
C          4.99290        2.74380        0.07280
C          4.61440        3.52560        1.17980
N          5.47290        4.62950        1.51120
C          6.67707        4.96525        0.77811
C          3.41500        3.18190        1.88580
C          2.99110        3.89600        3.13780
C          3.81418        4.46434        4.03258
C          2.64100        2.09480        1.40820
H          0.43542       -0.81188       -0.59684
H          0.26779        0.80909        0.27935
H          2.78624       -0.61344       -0.73364
H          4.54900        1.11360       -1.23070
H          5.89880        2.97470       -0.47420
H          5.53128        4.86011        2.51578
H          7.00434        4.12670        0.12771
H          7.50760        5.15757        1.49112
H          6.52062        5.89686        0.19622
H          1.94387        4.00030        3.36280
H          4.89192        4.44804        3.95678
H          3.39217        4.96533        4.89839
H          1.74530        1.81060        1.92360
25

C          1.08020       -0.24612        0.25620
C          2.24340        0.19170       -0.24500
C          3.03020        1.34310        0.28420
C          4.21800        1.67770       -0.36670
C          4.99290        2.74380        0.07280
C          4.61440        3.52560        1.17980
N          5.47290        4.62950        1.51120
C          5.24221        5.52644        2.62586
C          3.41500        3.18190        1.88580
C          2.99110        3.89600        3.13780
C          3.32306        3.54592        4.39013
C          2.64100        2.09480        1.40820
H          0.58591       -1.09327       -0.20836
H          0.59208        0.20638        1.10854
H          2.63478       -0.33666       -1.11065
H          4.54900        1.11360       -1.23070
H          5.89880        2.97470       -0.47420
H          5.93570        5.08766        0.71015
H          4.20362        5.43969        3.00943
H          5.37113        6.57863        2.29209
H          5.98972        5.34061        3.42439
H          2.38450        4.78205        3.06610
H          3.92400        2.68229        4.63620
H          2.96634        4.14656        5.22121
H          1.74530        1.81060        1.92360
25

C          2.21283       -0.20100       -1.52592
C          2.24340        0.19170       -0.24500
C          3.03020        1.34310        0.28420
C          4.21800        1.67770       -0.36670
C          4.99290        2.74380        0.07280
C          4.61440        3.52560        1.17980
N          5.47290        4.62950        1.51120
C          6.89947        4.64860        1.25679
C          3.41500        3.18190        1.88580
C          2.99110        3.89600        3.13780
C          3.81418        4.46434        4.03258
C          2.64100        2.09480        1.40820
H          1.60791       -1.05756       -1.80554
H          2.77009        0.29013       -2.31190
H          1.64889       -0.38457        0.45939
H          4.54900        1.11360       -1.23070
H          5.89880        2.97470       -0.47420
H          5.20295        5.16471        2.35170
H          7.28856        3.63011        1.04559
H          7.43550        5.01295        2.15959
H          7.12900        5.35321        0.43109
H          1.94387        4.00030        3.36280
H          4.89192        4.44804        3.95678
H          3.39217        4.96533        4.89839
H          1.74530        1.81060        1.92360
25

C          2.21283       -0.20100       -1.52592
C          2.24340        0.19170       -0.24500
C          3.03020        1.34310        0.28420
C          4.21800        1.67770       -0.36670
C          4.99290        2.74380        0.07280
C          4.61440        3.52560        1.17980
N          5.47290        4.62950        1.51120
C          6.26580        5.35653        0.54016
C          3.41500        3.18190        1.88580
C          2.99110        3.89600        3.13780
C          3.65358        4.90287        3.72808
C          2.64100        2.09480        1.40820
H          1.60791       -1.05756       -1.80554
H          2.77009        0.29013       -2.31190
H          1.64889       -0.38457        0.45939
H          4.54900        1.11360       -1.23070
H          5.89880        2.97470       -0.47420
H          5.91372        4.58435        2.44362
H          6.35194        4.79708       -0.41529
H          7.29978        5.48900        0.92549
H          5.84063        6.36934        0.38390
H          2.07120        3.61950        3.62310
H          4.59298        5.29906        3.37018
H          3.24403        5.35227        4.62753
H          1.74530        1.81060        1.92360
25

C          1.27918        0.27434       -1.17202
C          2.24340        0.19170       -0.24500
C          3.03020        1.34310        0.28420
C          4.21800        1.67770       -0.36670
C          4.99290        2.74380        0.07280
C          4.61440        3.52560        1.17980
N          5.47290        4.62950        1.51120
C          6.89947        4.64860        1.25679
C          3.41500        3.18190        1.88580
C          2.99110        3.89600        3.13780
C          1.72534        4.08411        3.54221
C          2.64100        2.09480        1.40820
H          0.76918       -0.62888       -1.49123
H          0.97695        1.20406       -1.63438
H          2.46803       -0.79874        0.14264
H          4.54900        1.11360       -1.23070
H          5.89880        2.97470       -0.47420
H          5.20295        5.16471        2.35170
H          7.28856        3.63011        1.04559
H          7.43550        5.01295        2.15959
H          7.12900        5.35321        0.43109
H          3.73798        4.28798        3.80616
H          0.85900        3.75474        2.98676
H          1.53853        4.60726        4.47502
H          1.74530        1.81060        1.92360
25

C          2.38214       -1.08360        0.14266
C          2.24340        0.19170       -0.24500
C          3.03020        1.34310        0.28420
C          4.21800        1.67770       -0.36670
C          4.99290        2.74380        0.07280
C          4.61440        3.52560        1.17980
N          5.47290        4.62950        1.51120
C          5.24221        5.52644        2.62586
C          3.41500        3.18190        1.88580
C          2.99110        3.89600        3.13780
C          3.32306        3.54592        4.39013
C          2.64100        2.09480        1.40820
H          1.75420       -1.84713       -0.30514
H          3.09176       -1.40298        0.89361
H          1.49033        0.39546       -1.00201
H          4.54900        1.11360       -1.23070
H          5.89880        2.97470       -0.47420
H          5.93570        5.08766        0.71015
H          4.20362        5.43969        3.00943
H          5.37113        6.57863        2.29209
H          5.98972        5.34061        3.42439
H          2.38450        4.78205        3.06610
H          3.92400        2.68229        4.63620
H          2.96634        4.14656        5.22121
H          1.74530        1.81060        1.92360
25

C          1.08020       -0.24612        0.25620
C          2.24340        0.19170       -0.24500
C          3.03020        1.34310        0.28420
C          4.21800        1.67770       -0.36670
C          4.99290        2.74380        0.07280
C          4.61440        3.52560        1.17980
N          5.47290        4.62950        1.51120
C          5.65681        5.13460        2.85702
C          3.41500        3.18190        1.88580
C          2.99110        3.89600        3.13780
C          3.26164        5.17529        3.44000
C          2.64100        2.09480        1.40820
H          0.58591       -1.09327       -0.20836
H          0.59208        0.20638        1.10854
H          2.63478       -0.33666       -1.11065
H          4.54900        1.11360       -1.23070
H          5.89880        2.97470       -0.47420
H          5.55319        5.36178        0.78795
H          4.86301        4.76722        3.54129
H          5.58524        6.24365        2.85327
H          6.66923        4.87148        3.22682
H          2.40003        3.37737        3.87254
H          3.84446        5.83356        2.81188
H          2.89208        5.58969        4.37296
H          1.74530        1.81060        1.92360
25

C          1.27918        0.27434       -1.17202
C          2.24340        0.19170       -0.24500
C          3.03020        1.34310        0.28420
C          4.21800        1.67770       -0.36670
C          4.99290        2.74380        0.07280
C          4.61440        3.52560        1.17980
N          5.47290        4.62950        1.51120
C          6.26580        5.35653        0.54016
C          3.41500        3.18190        1.88580
C          2.99110        3.89600        3.13780
C          1.72534        4.08411        3.54221
C          2.64100        2.09480        1.40820
H          0.76918       -0.62888       -1.49123
H          0.97695        1.20406       -1.63438
H          2.46803       -0.79874        0.14264
H          4.54900        1.11360       -1.23070
H          5.89880        2.97470       -0.47420
H          5.91372        4.58435        2.44362
H          6.35194        4.79708       -0.41529
H          7.29978        5.48900        0.92549
H          5.84063        6.36934        0.38390
H          3.73798        4.28798        3.80616
H          0.85900        3.75474        2.98676
H          1.53853        4.60726        4.47502
H          1.74530        1.81060        1.92360
25

C          2.38214       -1.08360        0.14266
C          2.24340        0.19170       -0.24500
C          3.03020        1.34310        0.28420
C          4.21800        1.67770       -0.36670
C          4.99290        2.74380        0.07280
C          4.61440        3.52560        1.17980
N          5.47290        4.62950        1.51120
C          5.65681        5.13460        2.85702
C          3.41500        3.18190        1.88580
C          2.99110        3.89600        3.13780
C          3.26164        5.17529        3.44000
C          2.64100        2.09480        1.40820
H          1.75420       -1.84713       -0.30514
H          3.09176       -1.40298        0.89361
H          1.49033        0.39546       -1.00201
H          4.54900        1.11360       -1.23070
H          5.89880        2.97470       -0.47420
H          5.55319        5.36178        0.78795
H          4.86301        4.76722        3.54129
H          5.58524        6.24365        2.85327
H          6.66923        4.87148        3.22682
H          2.40003        3.37737        3.87254
H          3.84446        5.83356        2.81188
H          2.89208        5.58969        4.37296
H          1.74530        1.81060        1.92360
