
  xtb     02032211113D
 xtb: 6.4.1 (23d549d)
 25 25  0     0  0            999 V2000
    1.7171   -0.7050    0.4649 c   0  0  0  0  0  0  0  0  0  0  0  0
    2.6678   -0.0296   -0.1719 c   0  0  0  0  0  0  0  0  0  0  0  0
    3.2898    1.2165    0.2470 c   0  0  0  0  0  0  0  0  0  0  0  0
    4.3003    1.7735   -0.5395 c   0  0  0  0  0  0  0  0  0  0  0  0
    4.9228    2.9485   -0.1826 c   0  0  0  0  0  0  0  0  0  0  0  0
    4.5604    3.6335    0.9807 c   0  0  0  0  0  0  0  0  0  0  0  0
    5.1058    4.8540    1.2878 n   0  0  0  0  0  0  0  0  0  0  0  0
    6.2907    5.3689    0.6510 c   0  0  0  0  0  0  0  0  0  0  0  0
    3.5495    3.0780    1.7982 c   0  0  0  0  0  0  0  0  0  0  0  0
    3.1594    3.7136    3.0572 c   0  0  0  0  0  0  0  0  0  0  0  0
    1.9258    3.7384    3.5434 c   0  0  0  0  0  0  0  0  0  0  0  0
    2.9401    1.8933    1.4132 c   0  0  0  0  0  0  0  0  0  0  0  0
    1.3214   -1.6240    0.0674 h   0  0  0  0  0  0  0  0  0  0  0  0
    1.2951   -0.3776    1.3999 h   0  0  0  0  0  0  0  0  0  0  0  0
    3.0463   -0.4231   -1.1090 h   0  0  0  0  0  0  0  0  0  0  0  0
    4.6053    1.2702   -1.4466 h   0  0  0  0  0  0  0  0  0  0  0  0
    5.6993    3.3441   -0.8178 h   0  0  0  0  0  0  0  0  0  0  0  0
    4.9340    5.1851    2.2228 h   0  0  0  0  0  0  0  0  0  0  0  0
    6.1046    5.5303   -0.4127 h   0  0  0  0  0  0  0  0  0  0  0  0
    7.1515    4.6962    0.7561 h   0  0  0  0  0  0  0  0  0  0  0  0
    6.5411    6.3274    1.1005 h   0  0  0  0  0  0  0  0  0  0  0  0
    3.9554    4.1749    3.6334 h   0  0  0  0  0  0  0  0  0  0  0  0
    1.0947    3.3160    3.0046 h   0  0  0  0  0  0  0  0  0  0  0  0
    1.6981    4.1942    4.4921 h   0  0  0  0  0  0  0  0  0  0  0  0
    2.1867    1.4781    2.0639 h   0  0  0  0  0  0  0  0  0  0  0  0
  1  2  2  0  0  0  0
  2  3  1  0  0  0  0
  3  4  4  0  0  0  0
  4  5  4  0  0  0  0
  5  6  4  0  0  0  0
  6  7  1  0  0  0  0
  7  8  1  0  0  0  0
  6  9  4  0  0  0  0
  9 10  1  0  0  0  0
 10 11  2  0  0  0  0
  3 12  4  0  0  0  0
  9 12  4  0  0  0  0
  1 13  1  0  0  0  0
  1 14  1  0  0  0  0
  2 15  1  0  0  0  0
  4 16  1  0  0  0  0
  5 17  1  0  0  0  0
  7 18  1  0  0  0  0
  8 19  1  0  0  0  0
  8 20  1  0  0  0  0
  8 21  1  0  0  0  0
 10 22  1  0  0  0  0
 11 23  1  0  0  0  0
 11 24  1  0  0  0  0
 12 25  1  0  0  0  0
M  END
