 xtb: 6.5.0 (unknown)
          08122213043D

 26  0  0     0  0            999 V2000
   -4.4922   -0.9779    0.1633 c   0  0  0  0  0  0  0  0  0  0  0  0
   -3.6528   -0.0574   -0.2924 c   0  0  0  0  0  0  0  0  0  0  0  0
   -2.2059   -0.0665   -0.0921 c   0  0  0  0  0  0  0  0  0  0  0  0
   -1.5191   -1.2718    0.0400 c   0  0  0  0  0  0  0  0  0  0  0  0
   -0.1503   -1.3363    0.2263 c   0  0  0  0  0  0  0  0  0  0  0  0
    0.5231   -2.6711    0.3435 c   0  0  0  0  0  0  0  0  0  0  0  0
    0.5766   -0.1367    0.2780 c   0  0  0  0  0  0  0  0  0  0  0  0
    2.0180   -0.1710    0.4854 c   0  0  0  0  0  0  0  0  0  0  0  0
    2.8982    0.7637    0.1634 c   0  0  0  0  0  0  0  0  0  0  0  0
    2.6751    1.9260   -0.4428 f   0  0  0  0  0  0  0  0  0  0  0  0
    4.2065    0.6475    0.4001 f   0  0  0  0  0  0  0  0  0  0  0  0
   -0.1077    1.0710    0.1450 c   0  0  0  0  0  0  0  0  0  0  0  0
   -1.4770    1.1306   -0.0415 c   0  0  0  0  0  0  0  0  0  0  0  0
   -2.1530    2.4634   -0.1603 c   0  0  0  0  0  0  0  0  0  0  0  0
   -5.5507   -0.9180   -0.0241 h   0  0  0  0  0  0  0  0  0  0  0  0
   -4.1630   -1.8153    0.7549 h   0  0  0  0  0  0  0  0  0  0  0  0
   -4.0458    0.7820   -0.8498 h   0  0  0  0  0  0  0  0  0  0  0  0
   -2.0773   -2.1940   -0.0269 h   0  0  0  0  0  0  0  0  0  0  0  0
   -0.1991   -3.4717    0.2056 h   0  0  0  0  0  0  0  0  0  0  0  0
    0.9773   -2.7910    1.3271 h   0  0  0  0  0  0  0  0  0  0  0  0
    1.3042   -2.7797   -0.4074 h   0  0  0  0  0  0  0  0  0  0  0  0
    2.4377   -1.0538    0.9434 h   0  0  0  0  0  0  0  0  0  0  0  0
    0.4427    1.9969    0.2033 h   0  0  0  0  0  0  0  0  0  0  0  0
   -1.4340    3.2672   -0.0258 h   0  0  0  0  0  0  0  0  0  0  0  0
   -2.9360    2.5674    0.5892 h   0  0  0  0  0  0  0  0  0  0  0  0
   -2.6098    2.5768   -1.1434 h   0  0  0  0  0  0  0  0  0  0  0  0
M  END
