
  xtb     02032211353D
 xtb: 6.4.1 (23d549d)
 30 31  0     0  0            999 V2000
   -5.8487    0.7918   -0.2285 C   0  0  0  0  0  0  0  0  0  0  0  0
   -5.0037   -0.1658    0.1359 C   0  0  0  0  0  0  0  0  0  0  0  0
   -3.5491   -0.1145    0.0829 C   0  0  0  0  0  0  0  0  0  0  0  0
   -2.8380    1.0068   -0.3487 C   0  0  0  0  0  0  0  0  0  0  0  0
   -1.4598    1.0054   -0.3772 C   0  0  0  0  0  0  0  0  0  0  0  0
   -0.7333   -0.1181    0.0168 C   0  0  0  0  0  0  0  0  0  0  0  0
    0.7333   -0.1180   -0.0185 C   0  0  0  0  0  0  0  0  0  0  0  0
    1.4595    1.0059    0.3751 C   0  0  0  0  0  0  0  0  0  0  0  0
    2.8377    1.0073    0.3475 C   0  0  0  0  0  0  0  0  0  0  0  0
    3.5491   -0.1142   -0.0828 C   0  0  0  0  0  0  0  0  0  0  0  0
    5.0038   -0.1657   -0.1343 C   0  0  0  0  0  0  0  0  0  0  0  0
    5.8485    0.7915    0.2318 C   0  0  0  0  0  0  0  0  0  0  0  0
    2.8178   -1.2355   -0.4811 C   0  0  0  0  0  0  0  0  0  0  0  0
    1.4395   -1.2411   -0.4464 C   0  0  0  0  0  0  0  0  0  0  0  0
   -1.4391   -1.2410    0.4457 C   0  0  0  0  0  0  0  0  0  0  0  0
   -2.8175   -1.2355    0.4813 C   0  0  0  0  0  0  0  0  0  0  0  0
   -6.9140    0.6564   -0.1516 H   0  0  0  0  0  0  0  0  0  0  0  0
   -5.5234    1.7418   -0.6162 H   0  0  0  0  0  0  0  0  0  0  0  0
   -5.4047   -1.0986    0.5150 H   0  0  0  0  0  0  0  0  0  0  0  0
   -3.3688    1.8908   -0.6669 H   0  0  0  0  0  0  0  0  0  0  0  0
   -0.9329    1.8797   -0.7316 H   0  0  0  0  0  0  0  0  0  0  0  0
    0.9323    1.8804    0.7285 H   0  0  0  0  0  0  0  0  0  0  0  0
    3.3683    1.8916    0.6653 H   0  0  0  0  0  0  0  0  0  0  0  0
    5.4051   -1.0981   -0.5138 H   0  0  0  0  0  0  0  0  0  0  0  0
    5.5228    1.7413    0.6200 H   0  0  0  0  0  0  0  0  0  0  0  0
    6.9138    0.6560    0.1562 H   0  0  0  0  0  0  0  0  0  0  0  0
    3.3450   -2.1151   -0.8241 H   0  0  0  0  0  0  0  0  0  0  0  0
    0.8988   -2.1166   -0.7760 H   0  0  0  0  0  0  0  0  0  0  0  0
   -0.8982   -2.1163    0.7756 H   0  0  0  0  0  0  0  0  0  0  0  0
   -3.3444   -2.1149    0.8253 H   0  0  0  0  0  0  0  0  0  0  0  0
  1  2  2  0  0  0  0
  2  3  1  0  0  0  0
  3  4  4  0  0  0  0
  4  5  4  0  0  0  0
  5  6  4  0  0  0  0
  6  7  1  0  0  0  0
  7  8  4  0  0  0  0
  8  9  4  0  0  0  0
  9 10  4  0  0  0  0
 10 11  1  0  0  0  0
 11 12  2  0  0  0  0
 10 13  4  0  0  0  0
  7 14  4  0  0  0  0
 13 14  4  0  0  0  0
  6 15  4  0  0  0  0
  3 16  4  0  0  0  0
 15 16  4  0  0  0  0
  1 17  1  0  0  0  0
  1 18  1  0  0  0  0
  2 19  1  0  0  0  0
  4 20  1  0  0  0  0
  5 21  1  0  0  0  0
  8 22  1  0  0  0  0
  9 23  1  0  0  0  0
 11 24  1  0  0  0  0
 12 25  1  0  0  0  0
 12 26  1  0  0  0  0
 13 27  1  0  0  0  0
 14 28  1  0  0  0  0
 15 29  1  0  0  0  0
 16 30  1  0  0  0  0
M  END
