
 OpenBabel08122213063D

 26 27  0  0  0  0  0  0  0  0999 V2000
    2.6688    0.2767   -1.1746 C   0  0  0  0  0  0  0  0  0  0  0  0
    2.2815   -0.0227    0.0712 C   0  0  0  0  0  0  0  0  0  0  0  0
    2.9975   -1.0016    0.8995 C   0  0  0  0  0  0  0  0  0  0  0  0
    2.5779   -2.3401    0.8046 C   0  0  0  0  0  0  0  0  0  0  0  0
    3.1713   -3.3399    1.5788 C   0  0  0  0  0  0  0  0  0  0  0  0
    2.7835   -4.7558    1.4768 C   0  0  0  0  0  0  0  0  0  0  0  0
    1.5739   -5.2308    1.1631 C   0  0  0  0  0  0  0  0  0  0  0  0
    0.5342   -4.4097    0.9100 F   0  0  0  0  0  0  0  0  0  0  0  0
    1.3874   -6.5677    1.1118 F   0  0  0  0  0  0  0  0  0  0  0  0
    4.2186   -2.9737    2.4346 C   0  0  0  0  0  0  0  0  0  0  0  0
    4.8123   -3.9268    3.1765 F   0  0  0  0  0  0  0  0  0  0  0  0
    4.6729   -1.6466    2.5464 C   0  0  0  0  0  0  0  0  0  0  0  0
    5.7239   -1.3100    3.4213 C   0  0  0  0  0  0  0  0  0  0  0  0
    6.1836    0.0024    3.5252 C   0  0  0  0  0  0  0  0  0  0  0  0
    5.6000    0.9992    2.7557 C   0  0  0  0  0  0  0  0  0  0  0  0
    4.5509    0.6845    1.8893 C   0  0  0  0  0  0  0  0  0  0  0  0
    4.0619   -0.6374    1.7652 C   0  0  0  0  0  0  0  0  0  0  0  0
    2.1125    0.9975   -1.7656 H   0  0  0  0  0  0  0  0  0  0  0  0
    3.5404   -0.1819   -1.6315 H   0  0  0  0  0  0  0  0  0  0  0  0
    1.4065    0.4407    0.5181 H   0  0  0  0  0  0  0  0  0  0  0  0
    1.7790   -2.5870    0.1070 H   0  0  0  0  0  0  0  0  0  0  0  0
    3.5653   -5.4778    1.6999 H   0  0  0  0  0  0  0  0  0  0  0  0
    6.1931   -2.0801    4.0315 H   0  0  0  0  0  0  0  0  0  0  0  0
    6.9974    0.2423    4.2049 H   0  0  0  0  0  0  0  0  0  0  0  0
    5.9573    2.0236    2.8255 H   0  0  0  0  0  0  0  0  0  0  0  0
    4.1173    1.4893    1.2991 H   0  0  0  0  0  0  0  0  0  0  0  0
  1  2  2  0  0  0  0
  1 18  1  0  0  0  0
  1 19  1  0  0  0  0
  2  3  1  0  0  0  0
  2 20  1  0  0  0  0
  3  4  1  0  0  0  0
  3 17  2  0  0  0  0
  4  5  2  0  0  0  0
  4 21  1  0  0  0  0
  5  6  1  0  0  0  0
  5 10  1  0  0  0  0
  6  7  2  0  0  0  0
  6 22  1  0  0  0  0
  7  8  1  0  0  0  0
  7  9  1  0  0  0  0
 10 11  1  0  0  0  0
 10 12  2  0  0  0  0
 12 13  1  0  0  0  0
 12 17  1  0  0  0  0
 13 14  2  0  0  0  0
 13 23  1  0  0  0  0
 14 15  1  0  0  0  0
 14 24  1  0  0  0  0
 15 16  2  0  0  0  0
 15 25  1  0  0  0  0
 16 17  1  0  0  0  0
 16 26  1  0  0  0  0
M  END
