21

C          1.22499        0.67544       -0.80316
C          2.19410        0.15700       -0.03620
C          2.86270        0.86570        1.09590
C          2.39220        0.80030        2.42320
C          3.03530        1.48060        3.47070
F          2.49860        1.34540        4.70590
C          4.19240        2.26690        3.23330
C          4.93120        3.02740        4.29430
C          5.95056        2.57646        5.03860
C          4.66810        2.33060        1.90970
N          5.76570        3.04470        1.54130
S          5.85150        2.76940       -0.08340
N          4.56420        1.78150       -0.38100
C          4.00860        1.63650        0.85170
H          0.80384        0.07838       -1.60574
H          0.83251        1.67393       -0.66758
H          2.50901       -0.85611       -0.27014
H          1.51750        0.22140        2.67720
H          4.61782        4.04714        4.49786
H          6.36938        1.58698        4.96023
H          6.39503        3.23458        5.77876
21

C          2.48390       -1.08643       -0.44371
C          2.19410        0.15700       -0.03620
C          2.86270        0.86570        1.09590
C          2.39220        0.80030        2.42320
C          3.03530        1.48060        3.47070
F          2.49860        1.34540        4.70590
C          4.19240        2.26690        3.23330
C          4.93120        3.02740        4.29430
C          4.70846        4.29379        4.67256
C          4.66810        2.33060        1.90970
N          5.76570        3.04470        1.54130
S          5.85150        2.76940       -0.08340
N          4.56420        1.78150       -0.38100
C          4.00860        1.63650        0.85170
H          1.93716       -1.51488       -1.27768
H          3.24374       -1.70007        0.02053
H          1.40824        0.67516       -0.57862
H          1.51750        0.22140        2.67720
H          5.73603        2.51751        4.81564
H          3.95223        4.93158        4.24602
H          5.32297        4.72629        5.45604
21

C          2.48390       -1.08643       -0.44371
C          2.19410        0.15700       -0.03620
C          2.86270        0.86570        1.09590
C          2.39220        0.80030        2.42320
C          3.03530        1.48060        3.47070
F          2.49860        1.34540        4.70590
C          4.19240        2.26690        3.23330
C          4.93120        3.02740        4.29430
C          5.95056        2.57646        5.03860
C          4.66810        2.33060        1.90970
N          5.76570        3.04470        1.54130
S          5.85150        2.76940       -0.08340
N          4.56420        1.78150       -0.38100
C          4.00860        1.63650        0.85170
H          1.93716       -1.51488       -1.27768
H          3.24374       -1.70007        0.02053
H          1.40824        0.67516       -0.57862
H          1.51750        0.22140        2.67720
H          4.61782        4.04714        4.49786
H          6.36938        1.58698        4.96023
H          6.39503        3.23458        5.77876
21

C          1.22499        0.67544       -0.80316
C          2.19410        0.15700       -0.03620
C          2.86270        0.86570        1.09590
C          2.39220        0.80030        2.42320
C          3.03530        1.48060        3.47070
F          2.49860        1.34540        4.70590
C          4.19240        2.26690        3.23330
C          4.93120        3.02740        4.29430
C          4.70846        4.29379        4.67256
C          4.66810        2.33060        1.90970
N          5.76570        3.04470        1.54130
S          5.85150        2.76940       -0.08340
N          4.56420        1.78150       -0.38100
C          4.00860        1.63650        0.85170
H          0.80384        0.07838       -1.60574
H          0.83251        1.67393       -0.66758
H          2.50901       -0.85611       -0.27014
H          1.51750        0.22140        2.67720
H          5.73603        2.51751        4.81564
H          3.95223        4.93158        4.24602
H          5.32297        4.72629        5.45604
21

C          1.50676       -0.98844        0.07203
C          2.19410        0.15700       -0.03620
C          2.86270        0.86570        1.09590
C          2.39220        0.80030        2.42320
C          3.03530        1.48060        3.47070
F          2.49860        1.34540        4.70590
C          4.19240        2.26690        3.23330
C          4.93120        3.02740        4.29430
C          4.62502        3.08381        5.59795
C          4.66810        2.33060        1.90970
N          5.76570        3.04470        1.54130
S          5.85150        2.76940       -0.08340
N          4.56420        1.78150       -0.38100
C          4.00860        1.63650        0.85170
H          1.05420       -1.42398       -0.81312
H          1.37244       -1.51259        1.00832
H          2.25836        0.59296       -1.02923
H          1.51750        0.22140        2.67720
H          5.80231        3.60151        3.99249
H          3.78842        2.57609        6.04844
H          5.24585        3.67890        6.26048
21

C          0.88402       -0.11690       -0.10578
C          2.19410        0.15700       -0.03620
C          2.86270        0.86570        1.09590
C          2.39220        0.80030        2.42320
C          3.03530        1.48060        3.47070
F          2.49860        1.34540        4.70590
C          4.19240        2.26690        3.23330
C          4.93120        3.02740        4.29430
C          4.62502        3.08381        5.59795
C          4.66810        2.33060        1.90970
N          5.76570        3.04470        1.54130
S          5.85150        2.76940       -0.08340
N          4.56420        1.78150       -0.38100
C          4.00860        1.63650        0.85170
H          0.49358       -0.63585       -0.97540
H          0.17969        0.15641        0.66793
H          2.80287       -0.16451       -0.87663
H          1.51750        0.22140        2.67720
H          5.80231        3.60151        3.99249
H          3.78842        2.57609        6.04844
H          5.24585        3.67890        6.26048
21

C          2.18150        0.57951       -1.30801
C          2.19410        0.15700       -0.03620
C          2.86270        0.86570        1.09590
C          2.39220        0.80030        2.42320
C          3.03530        1.48060        3.47070
F          2.49860        1.34540        4.70590
C          4.19240        2.26690        3.23330
C          4.93120        3.02740        4.29430
C          5.95056        2.57646        5.03860
C          4.66810        2.33060        1.90970
N          5.76570        3.04470        1.54130
S          5.85150        2.76940       -0.08340
N          4.56420        1.78150       -0.38100
C          4.00860        1.63650        0.85170
H          1.66816       -0.01061       -2.06049
H          2.66429        1.49041       -1.63451
H          1.67684       -0.77565        0.17096
H          1.51750        0.22140        2.67720
H          4.61782        4.04714        4.49786
H          6.36938        1.58698        4.96023
H          6.39503        3.23458        5.77876
21

C          2.18150        0.57951       -1.30801
C          2.19410        0.15700       -0.03620
C          2.86270        0.86570        1.09590
C          2.39220        0.80030        2.42320
C          3.03530        1.48060        3.47070
F          2.49860        1.34540        4.70590
C          4.19240        2.26690        3.23330
C          4.93120        3.02740        4.29430
C          4.70846        4.29379        4.67256
C          4.66810        2.33060        1.90970
N          5.76570        3.04470        1.54130
S          5.85150        2.76940       -0.08340
N          4.56420        1.78150       -0.38100
C          4.00860        1.63650        0.85170
H          1.66816       -0.01061       -2.06049
H          2.66429        1.49041       -1.63451
H          1.67684       -0.77565        0.17096
H          1.51750        0.22140        2.67720
H          5.73603        2.51751        4.81564
H          3.95223        4.93158        4.24602
H          5.32297        4.72629        5.45604
21

C          1.22499        0.67544       -0.80316
C          2.19410        0.15700       -0.03620
C          2.86270        0.86570        1.09590
C          2.39220        0.80030        2.42320
C          3.03530        1.48060        3.47070
F          2.49860        1.34540        4.70590
C          4.19240        2.26690        3.23330
C          4.93120        3.02740        4.29430
C          6.24324        3.30036        4.31592
C          4.66810        2.33060        1.90970
N          5.76570        3.04470        1.54130
S          5.85150        2.76940       -0.08340
N          4.56420        1.78150       -0.38100
C          4.00860        1.63650        0.85170
H          0.80384        0.07838       -1.60574
H          0.83251        1.67393       -0.66758
H          2.50901       -0.85611       -0.27014
H          1.51750        0.22140        2.67720
H          4.36185        3.39703        5.14209
H          6.94016        2.99596        3.55286
H          6.65199        3.86029        5.15134
21

C          2.48390       -1.08643       -0.44371
C          2.19410        0.15700       -0.03620
C          2.86270        0.86570        1.09590
C          2.39220        0.80030        2.42320
C          3.03530        1.48060        3.47070
F          2.49860        1.34540        4.70590
C          4.19240        2.26690        3.23330
C          4.93120        3.02740        4.29430
C          6.24324        3.30036        4.31592
C          4.66810        2.33060        1.90970
N          5.76570        3.04470        1.54130
S          5.85150        2.76940       -0.08340
N          4.56420        1.78150       -0.38100
C          4.00860        1.63650        0.85170
H          1.93716       -1.51488       -1.27768
H          3.24374       -1.70007        0.02053
H          1.40824        0.67516       -0.57862
H          1.51750        0.22140        2.67720
H          4.36185        3.39703        5.14209
H          6.94016        2.99596        3.55286
H          6.65199        3.86029        5.15134
