37

F          1.59161       -4.52154       -2.04825
C          2.78878       -3.87945       -2.08297
F          3.46173       -3.85848       -3.25956
C          3.24499       -3.29795       -0.95998
C          4.52445       -2.54555       -0.78335
C          4.49707       -1.15919       -1.01250
C          5.64983       -0.38393       -0.87320
C          6.86990       -0.97130       -0.50050
N          8.05750       -0.17100       -0.36520
C          9.09310       -0.52950        0.57870
C         10.22820        0.30460        0.69830
O         10.34600        1.41400       -0.06240
C          9.41590        1.79480       -0.96440
C          8.24210        1.02890       -1.15200
C          7.27780        1.50820       -2.07280
C          7.50160        2.68270       -2.79640
C          8.67630        3.40890       -2.61220
C          9.62830        2.96910       -1.69460
C         11.25580       -0.01040        1.59380
C         11.18120       -1.16360        2.37260
C         10.08390       -2.01370        2.25180
C          9.05010       -1.70880        1.36210
C          6.90190       -2.35657       -0.26748
C          5.74865       -3.13554       -0.40526
H          2.60540       -3.38634       -0.08513
H          3.57660       -0.66902       -1.30625
H          5.59340        0.67933       -1.07054
H          6.34190        1.00310       -2.24430
H          6.75700        3.03380       -3.49930
H          8.84370        4.31970       -3.17250
H         10.53230        3.54570       -1.54370
H         12.11790        0.63900        1.68030
H         11.98030       -1.40470        3.06180
H         10.03530       -2.91700        2.84690
H          8.23710       -2.41360        1.29760
H          7.82496       -2.83653        0.03337
H          5.84677       -4.18837       -0.20940
37

F          1.84272       -5.08769       -1.45562
C          3.09720       -4.57598       -1.35007
F          4.13963       -5.38932       -1.64919
C          3.24499       -3.29795       -0.95998
C          4.52445       -2.54555       -0.78335
C          4.49707       -1.15919       -1.01250
C          5.64983       -0.38393       -0.87320
C          6.86990       -0.97130       -0.50050
N          8.05750       -0.17100       -0.36520
C          9.09310       -0.52950        0.57870
C         10.22820        0.30460        0.69830
O         10.34600        1.41400       -0.06240
C          9.41590        1.79480       -0.96440
C          8.24210        1.02890       -1.15200
C          7.27780        1.50820       -2.07280
C          7.50160        2.68270       -2.79640
C          8.67630        3.40890       -2.61220
C          9.62830        2.96910       -1.69460
C         11.25580       -0.01040        1.59380
C         11.18120       -1.16360        2.37260
C         10.08390       -2.01370        2.25180
C          9.05010       -1.70880        1.36210
C          6.90190       -2.35657       -0.26748
C          5.74865       -3.13554       -0.40526
H          2.32613       -2.75459       -0.75326
H          3.57660       -0.66902       -1.30625
H          5.59340        0.67933       -1.07054
H          6.34190        1.00310       -2.24430
H          6.75700        3.03380       -3.49930
H          8.84370        4.31970       -3.17250
H         10.53230        3.54570       -1.54370
H         12.11790        0.63900        1.68030
H         11.98030       -1.40470        3.06180
H         10.03530       -2.91700        2.84690
H          8.23710       -2.41360        1.29760
H          7.82496       -2.83653        0.03337
H          5.84677       -4.18837       -0.20940
37

F          1.02944       -3.92609       -0.63589
C          2.02420       -3.00455       -0.54687
F          1.68455       -1.73793       -0.20340
C          3.28771       -3.38860       -0.79871
C          4.51892       -2.54212       -0.75510
C          5.20978       -2.46686        0.46650
C          6.36636       -1.69505        0.59271
C          6.86990       -0.97130       -0.50050
N          8.05750       -0.17100       -0.36520
C          9.09310       -0.52950        0.57870
C         10.22820        0.30460        0.69830
O         10.34600        1.41400       -0.06240
C          9.41590        1.79480       -0.96440
C          8.24210        1.02890       -1.15200
C          7.27780        1.50820       -2.07280
C          7.50160        2.68270       -2.79640
C          8.67630        3.40890       -2.61220
C          9.62830        2.96910       -1.69460
C         11.25580       -0.01040        1.59380
C         11.18120       -1.16360        2.37260
C         10.08390       -2.01370        2.25180
C          9.05010       -1.70880        1.36210
C          6.18443       -1.04551       -1.72480
C          5.02625       -1.81853       -1.85452
H          3.42329       -4.43506       -1.06100
H          4.85095       -3.00656        1.33471
H          6.86479       -1.65088        1.55306
H          6.34190        1.00310       -2.24430
H          6.75700        3.03380       -3.49930
H          8.84370        4.31970       -3.17250
H         10.53230        3.54570       -1.54370
H         12.11790        0.63900        1.68030
H         11.98030       -1.40470        3.06180
H         10.03530       -2.91700        2.84690
H          8.23710       -2.41360        1.29760
H          6.55507       -0.50869       -2.58930
H          4.55506       -1.83001       -2.82111
37

F          1.17124       -4.08961       -1.46531
C          2.20065       -3.20855       -1.56895
F          2.07215       -2.18598       -2.44958
C          3.28771       -3.38860       -0.79871
C          4.51892       -2.54212       -0.75510
C          5.20978       -2.46686        0.46650
C          6.36636       -1.69505        0.59271
C          6.86990       -0.97130       -0.50050
N          8.05750       -0.17100       -0.36520
C          9.09310       -0.52950        0.57870
C         10.22820        0.30460        0.69830
O         10.34600        1.41400       -0.06240
C          9.41590        1.79480       -0.96440
C          8.24210        1.02890       -1.15200
C          7.27780        1.50820       -2.07280
C          7.50160        2.68270       -2.79640
C          8.67630        3.40890       -2.61220
C          9.62830        2.96910       -1.69460
C         11.25580       -0.01040        1.59380
C         11.18120       -1.16360        2.37260
C         10.08390       -2.01370        2.25180
C          9.05010       -1.70880        1.36210
C          6.18443       -1.04551       -1.72480
C          5.02625       -1.81853       -1.85452
H          3.26146       -4.24751       -0.13249
H          4.85095       -3.00656        1.33471
H          6.86479       -1.65088        1.55306
H          6.34190        1.00310       -2.24430
H          6.75700        3.03380       -3.49930
H          8.84370        4.31970       -3.17250
H         10.53230        3.54570       -1.54370
H         12.11790        0.63900        1.68030
H         11.98030       -1.40470        3.06180
H         10.03530       -2.91700        2.84690
H          8.23710       -2.41360        1.29760
H          6.55507       -0.50869       -2.58930
H          4.55506       -1.83001       -2.82111
37

F          1.36833       -4.45064       -0.02202
C          2.44087       -3.64972        0.21226
F          2.60035       -3.15591        1.46461
C          3.28771       -3.38860       -0.79871
C          4.51892       -2.54212       -0.75510
C          5.20978       -2.46686        0.46650
C          6.36636       -1.69505        0.59271
C          6.86990       -0.97130       -0.50050
N          8.05750       -0.17100       -0.36520
C          9.09310       -0.52950        0.57870
C         10.22820        0.30460        0.69830
O         10.34600        1.41400       -0.06240
C          9.41590        1.79480       -0.96440
C          8.24210        1.02890       -1.15200
C          7.27780        1.50820       -2.07280
C          7.50160        2.68270       -2.79640
C          8.67630        3.40890       -2.61220
C          9.62830        2.96910       -1.69460
C         11.25580       -0.01040        1.59380
C         11.18120       -1.16360        2.37260
C         10.08390       -2.01370        2.25180
C          9.05010       -1.70880        1.36210
C          6.18443       -1.04551       -1.72480
C          5.02625       -1.81853       -1.85452
H          3.04561       -3.85007       -1.75302
H          4.85095       -3.00656        1.33471
H          6.86479       -1.65088        1.55306
H          6.34190        1.00310       -2.24430
H          6.75700        3.03380       -3.49930
H          8.84370        4.31970       -3.17250
H         10.53230        3.54570       -1.54370
H         12.11790        0.63900        1.68030
H         11.98030       -1.40470        3.06180
H         10.03530       -2.91700        2.84690
H          8.23710       -2.41360        1.29760
H          6.55507       -0.50869       -2.58930
H          4.55506       -1.83001       -2.82111
37

F          1.61961       -4.81587       -0.02700
C          2.75072       -4.10015        0.20762
F          3.28126       -4.14577        1.45426
C          3.28771       -3.38860       -0.79871
C          4.51892       -2.54212       -0.75510
C          5.20978       -2.46686        0.46650
C          6.36636       -1.69505        0.59271
C          6.86990       -0.97130       -0.50050
N          8.05750       -0.17100       -0.36520
C          9.09310       -0.52950        0.57870
C         10.22820        0.30460        0.69830
O         10.34600        1.41400       -0.06240
C          9.41590        1.79480       -0.96440
C          8.24210        1.02890       -1.15200
C          7.27780        1.50820       -2.07280
C          7.50160        2.68270       -2.79640
C          8.67630        3.40890       -2.61220
C          9.62830        2.96910       -1.69460
C         11.25580       -0.01040        1.59380
C         11.18120       -1.16360        2.37260
C         10.08390       -2.01370        2.25180
C          9.05010       -1.70880        1.36210
C          6.18443       -1.04551       -1.72480
C          5.02625       -1.81853       -1.85452
H          2.76396       -3.44055       -1.75016
H          4.85095       -3.00656        1.33471
H          6.86479       -1.65088        1.55306
H          6.34190        1.00310       -2.24430
H          6.75700        3.03380       -3.49930
H          8.84370        4.31970       -3.17250
H         10.53230        3.54570       -1.54370
H         12.11790        0.63900        1.68030
H         11.98030       -1.40470        3.06180
H         10.03530       -2.91700        2.84690
H          8.23710       -2.41360        1.29760
H          6.55507       -0.50869       -2.58930
H          4.55506       -1.83001       -2.82111
37

F          1.14025       -3.80983       -1.81040
C          2.23206       -3.00092       -1.79251
F          2.23830       -1.92793       -2.62096
C          3.24499       -3.29795       -0.95998
C          4.52445       -2.54555       -0.78335
C          4.49707       -1.15919       -1.01250
C          5.64983       -0.38393       -0.87320
C          6.86990       -0.97130       -0.50050
N          8.05750       -0.17100       -0.36520
C          9.09310       -0.52950        0.57870
C         10.22820        0.30460        0.69830
O         10.34600        1.41400       -0.06240
C          9.41590        1.79480       -0.96440
C          8.24210        1.02890       -1.15200
C          7.27780        1.50820       -2.07280
C          7.50160        2.68270       -2.79640
C          8.67630        3.40890       -2.61220
C          9.62830        2.96910       -1.69460
C         11.25580       -0.01040        1.59380
C         11.18120       -1.16360        2.37260
C         10.08390       -2.01370        2.25180
C          9.05010       -1.70880        1.36210
C          6.90190       -2.35657       -0.26748
C          5.74865       -3.13554       -0.40526
H          3.11162       -4.18579       -0.34661
H          3.57660       -0.66902       -1.30625
H          5.59340        0.67933       -1.07054
H          6.34190        1.00310       -2.24430
H          6.75700        3.03380       -3.49930
H          8.84370        4.31970       -3.17250
H         10.53230        3.54570       -1.54370
H         12.11790        0.63900        1.68030
H         11.98030       -1.40470        3.06180
H         10.03530       -2.91700        2.84690
H          8.23710       -2.41360        1.29760
H          7.82496       -2.83653        0.03337
H          5.84677       -4.18837       -0.20940
37

F          0.99195       -3.64808       -1.42516
C          2.04858       -2.80027       -1.31817
F          1.83517       -1.48713       -1.57849
C          3.24499       -3.29795       -0.95998
C          4.52445       -2.54555       -0.78335
C          4.49707       -1.15919       -1.01250
C          5.64983       -0.38393       -0.87320
C          6.86990       -0.97130       -0.50050
N          8.05750       -0.17100       -0.36520
C          9.09310       -0.52950        0.57870
C         10.22820        0.30460        0.69830
O         10.34600        1.41400       -0.06240
C          9.41590        1.79480       -0.96440
C          8.24210        1.02890       -1.15200
C          7.27780        1.50820       -2.07280
C          7.50160        2.68270       -2.79640
C          8.67630        3.40890       -2.61220
C          9.62830        2.96910       -1.69460
C         11.25580       -0.01040        1.59380
C         11.18120       -1.16360        2.37260
C         10.08390       -2.01370        2.25180
C          9.05010       -1.70880        1.36210
C          6.90190       -2.35657       -0.26748
C          5.74865       -3.13554       -0.40526
H          3.27894       -4.36925       -0.77718
H          3.57660       -0.66902       -1.30625
H          5.59340        0.67933       -1.07054
H          6.34190        1.00310       -2.24430
H          6.75700        3.03380       -3.49930
H          8.84370        4.31970       -3.17250
H         10.53230        3.54570       -1.54370
H         12.11790        0.63900        1.68030
H         11.98030       -1.40470        3.06180
H         10.03530       -2.91700        2.84690
H          8.23710       -2.41360        1.29760
H          7.82496       -2.83653        0.03337
H          5.84677       -4.18837       -0.20940
