38

C          2.60476        0.00178        0.11130
C          1.10546       -0.02375        0.06423
C          0.36590       -0.67017        1.05939
C         -1.03068       -0.68667        1.00737
C         -1.73480       -0.05970       -0.04970
C         -3.24640       -0.08160       -0.11130
C         -4.01640       -0.72590        0.87920
C         -5.41220       -0.74420        0.82280
C         -6.11570       -0.12930       -0.23430
C         -7.62690       -0.15830       -0.30140
C         -8.39785       -0.80485        0.69571
C         -9.79388       -0.82975        0.63086
C        -10.46606       -0.21746       -0.43126
C        -11.96395       -0.24228       -0.51317
C         -9.72606        0.42412       -1.42729
C         -8.33044        0.45785       -1.36511
C         -5.34540        0.51170       -1.22760
C         -3.95010        0.53990       -1.16500
C         -0.96403        0.58644       -1.04698
C          0.43203        0.60473       -0.98594
H          2.99443       -0.54139        0.99853
H          2.95875        1.05301        0.15938
H          3.01469       -0.47848       -0.80217
H          0.86889       -1.16661        1.88029
H         -1.53300       -1.21303        1.80182
H         -3.56550       -1.21780        1.72520
H         -5.91670       -1.26480        1.62020
H         -7.94930       -1.28829        1.54735
H        -10.34914       -1.32929        1.41533
H        -12.41073       -0.78312        0.34805
H        -12.27769       -0.75158       -1.44867
H        -12.35485        0.79695       -0.51644
H        -10.23197        0.90015       -2.25877
H         -7.82729        0.96082       -2.17406
H         -5.79680        1.01560       -2.06640
H         -3.44550        1.04740       -1.97030
H         -1.41371        1.10011       -1.88028
H          0.99071        1.11295       -1.76280
38

C          2.60458        0.00979        0.11269
C          1.10553       -0.02217        0.06190
C          0.39038       -1.09201        0.60884
C         -1.00622       -1.11141        0.55803
C         -1.73480       -0.05970       -0.04970
C         -3.24640       -0.08160       -0.11130
C         -4.01640       -0.72590        0.87920
C         -5.41220       -0.74420        0.82280
C         -6.11570       -0.12930       -0.23430
C         -7.62690       -0.15830       -0.30140
C         -8.41709       -0.21250        0.87303
C         -9.81306       -0.23906        0.80762
C        -10.46616       -0.21873       -0.42845
C        -11.96390       -0.25166       -0.51029
C         -9.70704       -0.16771       -1.59996
C         -8.31124       -0.13478       -1.54125
C         -5.34540        0.51170       -1.22760
C         -3.95010        0.53990       -1.16500
C         -0.98846        1.01163       -0.59869
C          0.40769        1.02812       -0.53914
H          3.01515       -0.89210        0.61477
H          2.93992        0.90748        0.67343
H          3.01177        0.05278       -0.91953
H          0.91254       -1.91801        1.07616
H         -1.48889       -1.97249        0.98941
H         -3.56550       -1.21780        1.72520
H         -5.91670       -1.26480        1.62020
H         -7.98363       -0.22052        1.85906
H        -10.38325       -0.27477        1.72787
H        -12.42693       -0.28745        0.49874
H        -12.28654       -1.15054       -1.07679
H        -12.32926        0.65754       -1.03245
H        -10.19809       -0.15505       -2.56568
H         -7.79298       -0.10718       -2.48526
H         -5.79680        1.01560       -2.06640
H         -3.44550        1.04740       -1.97030
H         -1.45780        1.85991       -1.06836
H          0.94726        1.86599       -0.96430
38

C          2.60476        0.00178        0.11130
C          1.10546       -0.02375        0.06423
C          0.36590       -0.67017        1.05939
C         -1.03068       -0.68667        1.00737
C         -1.73480       -0.05970       -0.04970
C         -3.24640       -0.08160       -0.11130
C         -4.01640       -0.72590        0.87920
C         -5.41220       -0.74420        0.82280
C         -6.11570       -0.12930       -0.23430
C         -7.62690       -0.15830       -0.30140
C         -8.41709       -0.21250        0.87303
C         -9.81306       -0.23906        0.80762
C        -10.46616       -0.21873       -0.42845
C        -11.96390       -0.25166       -0.51029
C         -9.70704       -0.16771       -1.59996
C         -8.31124       -0.13478       -1.54125
C         -5.34540        0.51170       -1.22760
C         -3.95010        0.53990       -1.16500
C         -0.96403        0.58644       -1.04698
C          0.43203        0.60473       -0.98594
H          2.99443       -0.54139        0.99853
H          2.95875        1.05301        0.15938
H          3.01469       -0.47848       -0.80217
H          0.86889       -1.16661        1.88029
H         -1.53300       -1.21303        1.80182
H         -3.56550       -1.21780        1.72520
H         -5.91670       -1.26480        1.62020
H         -7.98363       -0.22052        1.85906
H        -10.38325       -0.27477        1.72787
H        -12.42693       -0.28745        0.49874
H        -12.28654       -1.15054       -1.07679
H        -12.32926        0.65754       -1.03245
H        -10.19809       -0.15505       -2.56568
H         -7.79298       -0.10718       -2.48526
H         -5.79680        1.01560       -2.06640
H         -3.44550        1.04740       -1.97030
H         -1.41371        1.10011       -1.88028
H          0.99071        1.11295       -1.76280
38

C          2.60458        0.00979        0.11269
C          1.10553       -0.02217        0.06190
C          0.39038       -1.09201        0.60884
C         -1.00622       -1.11141        0.55803
C         -1.73480       -0.05970       -0.04970
C         -3.24640       -0.08160       -0.11130
C         -4.01640       -0.72590        0.87920
C         -5.41220       -0.74420        0.82280
C         -6.11570       -0.12930       -0.23430
C         -7.62690       -0.15830       -0.30140
C         -8.39785       -0.80485        0.69571
C         -9.79388       -0.82975        0.63086
C        -10.46606       -0.21746       -0.43126
C        -11.96395       -0.24228       -0.51317
C         -9.72606        0.42412       -1.42729
C         -8.33044        0.45785       -1.36511
C         -5.34540        0.51170       -1.22760
C         -3.95010        0.53990       -1.16500
C         -0.98846        1.01163       -0.59869
C          0.40769        1.02812       -0.53914
H          3.01515       -0.89210        0.61477
H          2.93992        0.90748        0.67343
H          3.01177        0.05278       -0.91953
H          0.91254       -1.91801        1.07616
H         -1.48889       -1.97249        0.98941
H         -3.56550       -1.21780        1.72520
H         -5.91670       -1.26480        1.62020
H         -7.94930       -1.28829        1.54735
H        -10.34914       -1.32929        1.41533
H        -12.41073       -0.78312        0.34805
H        -12.27769       -0.75158       -1.44867
H        -12.35485        0.79695       -0.51644
H        -10.23197        0.90015       -2.25877
H         -7.82729        0.96082       -2.17406
H         -5.79680        1.01560       -2.06640
H         -3.44550        1.04740       -1.97030
H         -1.45780        1.85991       -1.06836
H          0.94726        1.86599       -0.96430
