21

C          2.48766       -0.15596       -1.18425
C          2.38710        0.11990        0.12350
C          3.13640       -0.54380        1.24150
C          2.67880       -1.68660        1.94430
F          1.49920       -2.28070        1.64730
C          3.43220       -2.25880        2.98590
F          2.90570       -3.34880        3.59200
C          4.68220       -1.71770        3.37860
C          5.53770       -2.27270        4.47950
C          5.50174       -1.92834        5.77437
C          5.14020       -0.58540        2.68300
N          6.32060        0.03300        2.95660
S          6.34660        1.26960        1.86570
N          4.93230        1.08730        1.03730
C          4.37640       -0.00530        1.62680
H          1.88200        0.40440       -1.88962
H          3.13690       -0.90861       -1.59978
H          1.68455        0.90697        0.38190
H          6.26892       -3.03229        4.21859
H          4.83556       -1.19082        6.19027
H          6.18250       -2.41206        6.46788
21

C          1.49523        1.11418        0.23491
C          2.38710        0.11990        0.12350
C          3.13640       -0.54380        1.24150
C          2.67880       -1.68660        1.94430
F          1.49920       -2.28070        1.64730
C          3.43220       -2.25880        2.98590
F          2.90570       -3.34880        3.59200
C          4.68220       -1.71770        3.37860
C          5.53770       -2.27270        4.47950
C          6.49717       -3.20090        4.35930
C          5.14020       -0.58540        2.68300
N          6.32060        0.03300        2.95660
S          6.34660        1.26960        1.86570
N          4.93230        1.08730        1.03730
C          4.37640       -0.00530        1.62680
H          1.02526        1.50420       -0.66253
H          1.20222        1.56792        1.16706
H          2.57527       -0.22722       -0.88839
H          5.37583       -1.89616        5.48536
H          6.77572       -3.67242        3.43153
H          7.04179       -3.51420        5.24451
21

C          2.48766       -0.15596       -1.18425
C          2.38710        0.11990        0.12350
C          3.13640       -0.54380        1.24150
C          2.67880       -1.68660        1.94430
F          1.49920       -2.28070        1.64730
C          3.43220       -2.25880        2.98590
F          2.90570       -3.34880        3.59200
C          4.68220       -1.71770        3.37860
C          5.53770       -2.27270        4.47950
C          6.49717       -3.20090        4.35930
C          5.14020       -0.58540        2.68300
N          6.32060        0.03300        2.95660
S          6.34660        1.26960        1.86570
N          4.93230        1.08730        1.03730
C          4.37640       -0.00530        1.62680
H          1.88200        0.40440       -1.88962
H          3.13690       -0.90861       -1.59978
H          1.68455        0.90697        0.38190
H          5.37583       -1.89616        5.48536
H          6.77572       -3.67242        3.43153
H          7.04179       -3.51420        5.24451
21

C          1.49523        1.11418        0.23491
C          2.38710        0.11990        0.12350
C          3.13640       -0.54380        1.24150
C          2.67880       -1.68660        1.94430
F          1.49920       -2.28070        1.64730
C          3.43220       -2.25880        2.98590
F          2.90570       -3.34880        3.59200
C          4.68220       -1.71770        3.37860
C          5.53770       -2.27270        4.47950
C          5.50174       -1.92834        5.77437
C          5.14020       -0.58540        2.68300
N          6.32060        0.03300        2.95660
S          6.34660        1.26960        1.86570
N          4.93230        1.08730        1.03730
C          4.37640       -0.00530        1.62680
H          1.02526        1.50420       -0.66253
H          1.20222        1.56792        1.16706
H          2.57527       -0.22722       -0.88839
H          6.26892       -3.03229        4.21859
H          4.83556       -1.19082        6.19027
H          6.18250       -2.41206        6.46788
21

C          1.49523        1.11418        0.23491
C          2.38710        0.11990        0.12350
C          3.13640       -0.54380        1.24150
C          2.67880       -1.68660        1.94430
F          1.49920       -2.28070        1.64730
C          3.43220       -2.25880        2.98590
F          2.90570       -3.34880        3.59200
C          4.68220       -1.71770        3.37860
C          5.53770       -2.27270        4.47950
C          6.87511       -2.22771        4.55622
C          5.14020       -0.58540        2.68300
N          6.32060        0.03300        2.95660
S          6.34660        1.26960        1.86570
N          4.93230        1.08730        1.03730
C          4.37640       -0.00530        1.62680
H          1.02526        1.50420       -0.66253
H          1.20222        1.56792        1.16706
H          2.57527       -0.22722       -0.88839
H          5.03896       -2.76722        5.30801
H          7.51287       -1.77514        3.81518
H          7.36947       -2.67277        5.41407
21

C          2.41496        1.42035       -0.19976
C          2.38710        0.11990        0.12350
C          3.13640       -0.54380        1.24150
C          2.67880       -1.68660        1.94430
F          1.49920       -2.28070        1.64730
C          3.43220       -2.25880        2.98590
F          2.90570       -3.34880        3.59200
C          4.68220       -1.71770        3.37860
C          5.53770       -2.27270        4.47950
C          6.49717       -3.20090        4.35930
C          5.14020       -0.58540        2.68300
N          6.32060        0.03300        2.95660
S          6.34660        1.26960        1.86570
N          4.93230        1.08730        1.03730
C          4.37640       -0.00530        1.62680
H          1.82067        1.76810       -1.03896
H          2.99538        2.16472        0.31955
H          1.75230       -0.50271       -0.50036
H          5.37583       -1.89616        5.48536
H          6.77572       -3.67242        3.43153
H          7.04179       -3.51420        5.24451
21

C          2.48766       -0.15596       -1.18425
C          2.38710        0.11990        0.12350
C          3.13640       -0.54380        1.24150
C          2.67880       -1.68660        1.94430
F          1.49920       -2.28070        1.64730
C          3.43220       -2.25880        2.98590
F          2.90570       -3.34880        3.59200
C          4.68220       -1.71770        3.37860
C          5.53770       -2.27270        4.47950
C          6.87511       -2.22771        4.55622
C          5.14020       -0.58540        2.68300
N          6.32060        0.03300        2.95660
S          6.34660        1.26960        1.86570
N          4.93230        1.08730        1.03730
C          4.37640       -0.00530        1.62680
H          1.88200        0.40440       -1.88962
H          3.13690       -0.90861       -1.59978
H          1.68455        0.90697        0.38190
H          5.03896       -2.76722        5.30801
H          7.51287       -1.77514        3.81518
H          7.36947       -2.67277        5.41407
21

C          2.41496        1.42035       -0.19976
C          2.38710        0.11990        0.12350
C          3.13640       -0.54380        1.24150
C          2.67880       -1.68660        1.94430
F          1.49920       -2.28070        1.64730
C          3.43220       -2.25880        2.98590
F          2.90570       -3.34880        3.59200
C          4.68220       -1.71770        3.37860
C          5.53770       -2.27270        4.47950
C          5.50174       -1.92834        5.77437
C          5.14020       -0.58540        2.68300
N          6.32060        0.03300        2.95660
S          6.34660        1.26960        1.86570
N          4.93230        1.08730        1.03730
C          4.37640       -0.00530        1.62680
H          1.82067        1.76810       -1.03896
H          2.99538        2.16472        0.31955
H          1.75230       -0.50271       -0.50036
H          6.26892       -3.03229        4.21859
H          4.83556       -1.19082        6.19027
H          6.18250       -2.41206        6.46788
21

C          2.77965        1.19079       -0.58045
C          2.38710        0.11990        0.12350
C          3.13640       -0.54380        1.24150
C          2.67880       -1.68660        1.94430
F          1.49920       -2.28070        1.64730
C          3.43220       -2.25880        2.98590
F          2.90570       -3.34880        3.59200
C          4.68220       -1.71770        3.37860
C          5.53770       -2.27270        4.47950
C          5.50174       -1.92834        5.77437
C          5.14020       -0.58540        2.68300
N          6.32060        0.03300        2.95660
S          6.34660        1.26960        1.86570
N          4.93230        1.08730        1.03730
C          4.37640       -0.00530        1.62680
H          2.13572        1.56914       -1.36822
H          3.70634        1.71710       -0.42268
H          1.42539       -0.29805       -0.15977
H          6.26892       -3.03229        4.21859
H          4.83556       -1.19082        6.19027
H          6.18250       -2.41206        6.46788
21

C          2.41496        1.42035       -0.19976
C          2.38710        0.11990        0.12350
C          3.13640       -0.54380        1.24150
C          2.67880       -1.68660        1.94430
F          1.49920       -2.28070        1.64730
C          3.43220       -2.25880        2.98590
F          2.90570       -3.34880        3.59200
C          4.68220       -1.71770        3.37860
C          5.53770       -2.27270        4.47950
C          6.87511       -2.22771        4.55622
C          5.14020       -0.58540        2.68300
N          6.32060        0.03300        2.95660
S          6.34660        1.26960        1.86570
N          4.93230        1.08730        1.03730
C          4.37640       -0.00530        1.62680
H          1.82067        1.76810       -1.03896
H          2.99538        2.16472        0.31955
H          1.75230       -0.50271       -0.50036
H          5.03896       -2.76722        5.30801
H          7.51287       -1.77514        3.81518
H          7.36947       -2.67277        5.41407
