
 OpenBabel08122213063D

 23 23  0  0  0  0  0  0  0  0999 V2000
    1.1223    0.2548   -0.4640 C   0  0  0  0  0  0  0  0  0  0  0  0
    2.2455   -0.1612    0.1317 C   0  0  0  0  0  0  0  0  0  0  0  0
    3.0299    0.6855    1.0404 C   0  0  0  0  0  0  0  0  0  0  0  0
    2.6302    0.7250    2.3853 C   0  0  0  0  0  0  0  0  0  0  0  0
    3.3714    1.4344    3.3316 C   0  0  0  0  0  0  0  0  0  0  0  0
    4.5268    2.1220    2.9475 C   0  0  0  0  0  0  0  0  0  0  0  0
    5.3786    2.8519    3.9568 C   0  0  0  0  0  0  0  0  0  0  0  0
    4.8821    2.8059    5.2241 F   0  0  0  0  0  0  0  0  0  0  0  0
    6.6397    2.3441    4.0334 F   0  0  0  0  0  0  0  0  0  0  0  0
    5.5244    4.1730    3.6606 F   0  0  0  0  0  0  0  0  0  0  0  0
    4.9025    2.1155    1.5913 C   0  0  0  0  0  0  0  0  0  0  0  0
    4.1761    1.3987    0.6234 C   0  0  0  0  0  0  0  0  0  0  0  0
    4.5626    1.4570   -0.7993 C   0  0  0  0  0  0  0  0  0  0  0  0
    5.7979    1.5924   -1.2967 C   0  0  0  0  0  0  0  0  0  0  0  0
    6.8795    1.6743   -0.4955 F   0  0  0  0  0  0  0  0  0  0  0  0
    5.9617    1.6448   -2.6358 F   0  0  0  0  0  0  0  0  0  0  0  0
    0.5693   -0.4110   -1.1192 H   0  0  0  0  0  0  0  0  0  0  0  0
    0.7299    1.2570   -0.3201 H   0  0  0  0  0  0  0  0  0  0  0  0
    2.6216   -1.1697   -0.0248 H   0  0  0  0  0  0  0  0  0  0  0  0
    1.7403    0.1863    2.7081 H   0  0  0  0  0  0  0  0  0  0  0  0
    3.0469    1.4359    4.3707 H   0  0  0  0  0  0  0  0  0  0  0  0
    5.7864    2.6866    1.3035 H   0  0  0  0  0  0  0  0  0  0  0  0
    3.7504    1.3846   -1.5176 H   0  0  0  0  0  0  0  0  0  0  0  0
  1  2  2  0  0  0  0
  1 17  1  0  0  0  0
  1 18  1  0  0  0  0
  2  3  1  0  0  0  0
  2 19  1  0  0  0  0
  3  4  1  0  0  0  0
  3 12  2  0  0  0  0
  4  5  2  0  0  0  0
  4 20  1  0  0  0  0
  5  6  1  0  0  0  0
  5 21  1  0  0  0  0
  6  7  1  0  0  0  0
  6 11  2  0  0  0  0
  7  8  1  0  0  0  0
  7  9  1  0  0  0  0
  7 10  1  0  0  0  0
 11 12  1  0  0  0  0
 11 22  1  0  0  0  0
 12 13  1  0  0  0  0
 13 14  2  0  0  0  0
 13 23  1  0  0  0  0
 14 15  1  0  0  0  0
 14 16  1  0  0  0  0
M  END
