
 OpenBabel02032210593D

 26 27  0  0  0  0  0  0  0  0999 V2000
    1.1360    0.5248    0.0772 C   0  0  0  0  0  0  0  0  0  0  0  0
    2.2570   -0.2040   -0.0058 C   0  0  0  0  0  0  0  0  0  0  0  0
    3.0558   -0.4037   -1.2475 C   0  0  0  0  0  0  0  0  0  0  0  0
    2.7141    0.1813   -2.4842 C   0  0  0  0  0  0  0  0  0  0  0  0
    3.4995   -0.0419   -3.6181 C   0  0  0  0  0  0  0  0  0  0  0  0
    4.6389   -0.8528   -3.5420 C   0  0  0  0  0  0  0  0  0  0  0  0
    5.4288   -1.0821   -4.6754 C   0  0  0  0  0  0  0  0  0  0  0  0
    6.5613   -1.8946   -4.5910 C   0  0  0  0  0  0  0  0  0  0  0  0
    6.9296   -2.4954   -3.3754 C   0  0  0  0  0  0  0  0  0  0  0  0
    8.1474   -3.3541   -3.3588 C   0  0  0  0  0  0  0  0  0  0  0  0
    8.6169   -4.0026   -2.2845 C   0  0  0  0  0  0  0  0  0  0  0  0
    6.1347   -2.2622   -2.2331 C   0  0  0  0  0  0  0  0  0  0  0  0
    4.9942   -1.4459   -2.3110 C   0  0  0  0  0  0  0  0  0  0  0  0
    4.2015   -1.2154   -1.1755 C   0  0  0  0  0  0  0  0  0  0  0  0
    0.6239    0.6081    1.0306 H   0  0  0  0  0  0  0  0  0  0  0  0
    0.7036    1.0422   -0.7685 H   0  0  0  0  0  0  0  0  0  0  0  0
    2.6020   -0.6846    0.9059 H   0  0  0  0  0  0  0  0  0  0  0  0
    1.8456    0.8126   -2.5937 H   0  0  0  0  0  0  0  0  0  0  0  0
    3.2143    0.4198   -4.5562 H   0  0  0  0  0  0  0  0  0  0  0  0
    5.1704   -0.6342   -5.6277 H   0  0  0  0  0  0  0  0  0  0  0  0
    7.1536   -2.0562   -5.4836 H   0  0  0  0  0  0  0  0  0  0  0  0
    8.7017   -3.4702   -4.2865 H   0  0  0  0  0  0  0  0  0  0  0  0
    8.1432   -3.9591   -1.3132 H   0  0  0  0  0  0  0  0  0  0  0  0
    9.5140   -4.6064   -2.3769 H   0  0  0  0  0  0  0  0  0  0  0  0
    6.3861   -2.7058   -1.2811 H   0  0  0  0  0  0  0  0  0  0  0  0
    4.4758   -1.6717   -0.2306 H   0  0  0  0  0  0  0  0  0  0  0  0
  1  2  2  0  0  0  0
  1 15  1  0  0  0  0
  1 16  1  0  0  0  0
  2  3  1  0  0  0  0
  2 17  1  0  0  0  0
  3  4  1  0  0  0  0
  3 14  2  0  0  0  0
  4  5  2  0  0  0  0
  4 18  1  0  0  0  0
  5  6  1  0  0  0  0
  5 19  1  0  0  0  0
  6  7  1  0  0  0  0
  6 13  2  0  0  0  0
  7  8  2  0  0  0  0
  7 20  1  0  0  0  0
  8  9  1  0  0  0  0
  8 21  1  0  0  0  0
  9 10  1  0  0  0  0
  9 12  2  0  0  0  0
 10 11  2  0  0  0  0
 10 22  1  0  0  0  0
 11 23  1  0  0  0  0
 11 24  1  0  0  0  0
 12 13  1  0  0  0  0
 12 25  1  0  0  0  0
 13 14  1  0  0  0  0
 14 26  1  0  0  0  0
M  END
