
 OpenBabel02012214113D

 17 17  0  0  0  0  0  0  0  0999 V2000
    0.9014    0.0841    0.0022 C   0  0  0  0  0  0  0  0  0  0  0  0
    2.3925   -0.0065   -0.0032 C   0  0  0  0  0  0  0  0  0  0  0  0
    3.2131    1.0656   -0.0087 N   0  0  0  0  0  0  0  0  0  0  0  0
    4.4618    0.6228   -0.0124 N   0  0  0  0  0  0  0  0  0  0  0  0
    4.4555   -0.7221   -0.0095 C   0  0  0  0  0  0  0  0  0  0  0  0
    5.6278   -1.5144   -0.0121 N   0  0  0  0  0  0  0  0  0  0  0  0
    3.1475   -1.1667   -0.0035 C   0  0  0  0  0  0  0  0  0  0  0  0
    2.6303   -2.5729    0.0016 C   0  0  0  0  0  0  0  0  0  0  0  0
    0.5816    1.1473    0.0012 H   0  0  0  0  0  0  0  0  0  0  0  0
    0.5002   -0.4124    0.9103 H   0  0  0  0  0  0  0  0  0  0  0  0
    0.4934   -0.4162   -0.9007 H   0  0  0  0  0  0  0  0  0  0  0  0
    5.3043    1.2394   -0.0170 H   0  0  0  0  0  0  0  0  0  0  0  0
    6.5532   -1.0623   -0.0166 H   0  0  0  0  0  0  0  0  0  0  0  0
    5.5789   -2.5420   -0.0096 H   0  0  0  0  0  0  0  0  0  0  0  0
    3.4553   -3.3121    0.0002 H   0  0  0  0  0  0  0  0  0  0  0  0
    2.0048   -2.7402   -0.8998 H   0  0  0  0  0  0  0  0  0  0  0  0
    2.0118   -2.7361    0.9086 H   0  0  0  0  0  0  0  0  0  0  0  0
  1  2  1  0  0  0  0
  1  9  1  0  0  0  0
  1 10  1  0  0  0  0
  1 11  1  0  0  0  0
  2  3  2  0  0  0  0
  2  7  1  0  0  0  0
  3  4  1  0  0  0  0
  4  5  1  0  0  0  0
  4 12  1  0  0  0  0
  5  6  1  0  0  0  0
  5  7  2  0  0  0  0
  6 13  1  0  0  0  0
  6 14  1  0  0  0  0
  7  8  1  0  0  0  0
  8 15  1  0  0  0  0
  8 16  1  0  0  0  0
  8 17  1  0  0  0  0
M  END
