26

C          1.13465       -0.13010       -0.14187
C          2.46880        0.01440       -0.16360
C          3.23270        1.17390        0.41050
C          4.45390        1.56190       -0.17710
C          5.19060        2.68140        0.25600
C          6.50060        2.93640       -0.44110
O          7.18740        3.88662       -0.09687
O          6.90635        2.23702       -1.52427
C          4.66140        3.48390        1.30710
C          5.32020        4.76190        1.74290
C          6.25563        4.87261        2.69887
C          3.44530        3.09020        1.90140
C          2.72990        1.94670        1.49620
C          1.47290        1.63200        2.26300
O          0.82427        2.54538        2.75129
O          1.08203        0.37035        2.54993
H          0.68939       -1.01918       -0.57730
H          0.45662        0.60036        0.27653
H          3.00719       -0.80406       -0.61828
H          4.85420        0.99070       -0.99790
H          6.32960        1.64643       -2.02478
H          5.02257        5.69534        1.28826
H          6.65852        4.03276        3.24712
H          6.65426        5.85280        2.94107
H          3.02770        3.68080        2.69960
H          1.64800       -0.40298        2.43481
26

C          1.13465       -0.13010       -0.14187
C          2.46880        0.01440       -0.16360
C          3.23270        1.17390        0.41050
C          4.45390        1.56190       -0.17710
C          5.19060        2.68140        0.25600
C          6.50060        2.93640       -0.44110
O          6.86243        2.18156       -1.33127
O          7.36938        3.89433       -0.04789
C          4.66140        3.48390        1.30710
C          5.32020        4.76190        1.74290
C          6.25563        4.87261        2.69887
C          3.44530        3.09020        1.90140
C          2.72990        1.94670        1.49620
C          1.47290        1.63200        2.26300
O          0.82427        2.54538        2.75129
O          1.08203        0.37035        2.54993
H          0.68939       -1.01918       -0.57730
H          0.45662        0.60036        0.27653
H          3.00719       -0.80406       -0.61828
H          4.85420        0.99070       -0.99790
H          7.29771        4.36818        0.79013
H          5.02257        5.69534        1.28826
H          6.65852        4.03276        3.24712
H          6.65426        5.85280        2.94107
H          3.02770        3.68080        2.69960
H          1.64800       -0.40298        2.43481
26

C          2.60222       -1.26902        0.20563
C          2.46880        0.01440       -0.16360
C          3.23270        1.17390        0.41050
C          4.45390        1.56190       -0.17710
C          5.19060        2.68140        0.25600
C          6.50060        2.93640       -0.44110
O          6.86243        2.18156       -1.33127
O          7.36938        3.89433       -0.04789
C          4.66140        3.48390        1.30710
C          5.32020        4.76190        1.74290
C          6.04304        5.57586        0.95795
C          3.44530        3.09020        1.90140
C          2.72990        1.94670        1.49620
C          1.47290        1.63200        2.26300
O          0.55554        1.05439        1.69887
O          1.25101        2.06709        3.52328
H          2.00529       -2.02894       -0.28887
H          3.26806       -1.60430        0.98832
H          1.76115        0.18661       -0.96113
H          4.85420        0.99070       -0.99790
H          7.29771        4.36818        0.79013
H          5.24928        5.07140        2.77527
H          6.20736        5.40557       -0.09668
H          6.48551        6.47047        1.38482
H          3.02770        3.68080        2.69960
H          1.79263        2.73599        3.96015
26

C          1.53121        0.09327       -1.12069
C          2.46880        0.01440       -0.16360
C          3.23270        1.17390        0.41050
C          4.45390        1.56190       -0.17710
C          5.19060        2.68140        0.25600
C          6.50060        2.93640       -0.44110
O          7.18740        3.88662       -0.09687
O          6.90635        2.23702       -1.52427
C          4.66140        3.48390        1.30710
C          5.32020        4.76190        1.74290
C          6.04304        5.57586        0.95795
C          3.44530        3.09020        1.90140
C          2.72990        1.94670        1.49620
C          1.47290        1.63200        2.26300
O          1.12426        2.37117        3.17157
O          0.76459        0.49535        2.08085
H          1.03226       -0.81221       -1.45155
H          1.24161        1.01498       -1.60539
H          2.64426       -0.97992        0.21983
H          4.85420        0.99070       -0.99790
H          6.32960        1.64643       -2.02478
H          5.24928        5.07140        2.77527
H          6.20736        5.40557       -0.09668
H          6.48551        6.47047        1.38482
H          3.02770        3.68080        2.69960
H          1.09013       -0.26167        1.57830
26

C          3.00734       -1.04083       -0.79430
C          2.46880        0.01440       -0.16360
C          3.23270        1.17390        0.41050
C          4.45390        1.56190       -0.17710
C          5.19060        2.68140        0.25600
C          6.50060        2.93640       -0.44110
O          7.13075        1.99343       -0.89588
O          7.08716        4.15344       -0.48346
C          4.66140        3.48390        1.30710
C          5.32020        4.76190        1.74290
C          5.06070        5.98277        1.24966
C          3.44530        3.09020        1.90140
C          2.72990        1.94670        1.49620
C          1.47290        1.63200        2.26300
O          1.11394        0.46914        2.37404
O          0.64186        2.58635        2.73782
H          2.35556       -1.81750       -1.18197
H          4.06998       -1.18073       -0.93419
H          1.39038        0.00696       -0.10494
H          4.85420        0.99070       -0.99790
H          6.80400        4.90129        0.05735
H          6.09213        4.73155        2.49776
H          4.31698        6.17981        0.49051
H          5.60916        6.83787        1.63221
H          3.02770        3.68080        2.69960
H          0.69798        3.51643        2.48601
26

C          2.84351       -0.72124       -1.22178
C          2.46880        0.01440       -0.16360
C          3.23270        1.17390        0.41050
C          4.45390        1.56190       -0.17710
C          5.19060        2.68140        0.25600
C          6.50060        2.93640       -0.44110
O          6.63586        2.59390       -1.60622
O          7.59181        3.41706        0.19551
C          4.66140        3.48390        1.30710
C          5.32020        4.76190        1.74290
C          6.25563        4.87261        2.69887
C          3.44530        3.09020        1.90140
C          2.72990        1.94670        1.49620
C          1.47290        1.63200        2.26300
O          0.55554        1.05439        1.69887
O          1.25101        2.06709        3.52328
H          2.20406       -1.53092       -1.55919
H          3.76530       -0.56853       -1.76523
H          1.51998       -0.26435        0.27058
H          4.85420        0.99070       -0.99790
H          7.66609        3.47642        1.15618
H          5.02257        5.69534        1.28826
H          6.65852        4.03276        3.24712
H          6.65426        5.85280        2.94107
H          3.02770        3.68080        2.69960
H          1.79263        2.73599        3.96015
26

C          2.60222       -1.26902        0.20563
C          2.46880        0.01440       -0.16360
C          3.23270        1.17390        0.41050
C          4.45390        1.56190       -0.17710
C          5.19060        2.68140        0.25600
C          6.50060        2.93640       -0.44110
O          7.13075        1.99343       -0.89588
O          7.08716        4.15344       -0.48346
C          4.66140        3.48390        1.30710
C          5.32020        4.76190        1.74290
C          4.89297        5.56439        2.73014
C          3.44530        3.09020        1.90140
C          2.72990        1.94670        1.49620
C          1.47290        1.63200        2.26300
O          0.55554        1.05439        1.69887
O          1.25101        2.06709        3.52328
H          2.00529       -2.02894       -0.28887
H          3.26806       -1.60430        0.98832
H          1.76115        0.18661       -0.96113
H          4.85420        0.99070       -0.99790
H          6.80400        4.90129        0.05735
H          6.20090        5.11001        1.22348
H          4.02756        5.35619        3.34331
H          5.44295        6.47381        2.95107
H          3.02770        3.68080        2.69960
H          1.79263        2.73599        3.96015
26

C          2.60222       -1.26902        0.20563
C          2.46880        0.01440       -0.16360
C          3.23270        1.17390        0.41050
C          4.45390        1.56190       -0.17710
C          5.19060        2.68140        0.25600
C          6.50060        2.93640       -0.44110
O          7.13075        1.99343       -0.89588
O          7.08716        4.15344       -0.48346
C          4.66140        3.48390        1.30710
C          5.32020        4.76190        1.74290
C          6.25563        4.87261        2.69887
C          3.44530        3.09020        1.90140
C          2.72990        1.94670        1.49620
C          1.47290        1.63200        2.26300
O          0.81398        0.64955        1.95636
O          0.95970        2.45454        3.20476
H          2.00529       -2.02894       -0.28887
H          3.26806       -1.60430        0.98832
H          1.76115        0.18661       -0.96113
H          4.85420        0.99070       -0.99790
H          6.80400        4.90129        0.05735
H          5.02257        5.69534        1.28826
H          6.65852        4.03276        3.24712
H          6.65426        5.85280        2.94107
H          3.02770        3.68080        2.69960
H          1.25713        3.36283        3.33957
26

C          2.84351       -0.72124       -1.22178
C          2.46880        0.01440       -0.16360
C          3.23270        1.17390        0.41050
C          4.45390        1.56190       -0.17710
C          5.19060        2.68140        0.25600
C          6.50060        2.93640       -0.44110
O          7.41218        3.47008        0.17316
O          6.68616        2.71813       -1.76207
C          4.66140        3.48390        1.30710
C          5.32020        4.76190        1.74290
C          5.06070        5.98277        1.24966
C          3.44530        3.09020        1.90140
C          2.72990        1.94670        1.49620
C          1.47290        1.63200        2.26300
O          1.12426        2.37117        3.17157
O          0.76459        0.49535        2.08085
H          2.20406       -1.53092       -1.55919
H          3.76530       -0.56853       -1.76523
H          1.51998       -0.26435        0.27058
H          4.85420        0.99070       -0.99790
H          5.96558        2.54415       -2.38048
H          6.09213        4.73155        2.49776
H          4.31698        6.17981        0.49051
H          5.60916        6.83787        1.63221
H          3.02770        3.68080        2.69960
H          1.09013       -0.26167        1.57830
26

C          1.53121        0.09327       -1.12069
C          2.46880        0.01440       -0.16360
C          3.23270        1.17390        0.41050
C          4.45390        1.56190       -0.17710
C          5.19060        2.68140        0.25600
C          6.50060        2.93640       -0.44110
O          6.86243        2.18156       -1.33127
O          7.36938        3.89433       -0.04789
C          4.66140        3.48390        1.30710
C          5.32020        4.76190        1.74290
C          6.04304        5.57586        0.95795
C          3.44530        3.09020        1.90140
C          2.72990        1.94670        1.49620
C          1.47290        1.63200        2.26300
O          1.12426        2.37117        3.17157
O          0.76459        0.49535        2.08085
H          1.03226       -0.81221       -1.45155
H          1.24161        1.01498       -1.60539
H          2.64426       -0.97992        0.21983
H          4.85420        0.99070       -0.99790
H          7.29771        4.36818        0.79013
H          5.24928        5.07140        2.77527
H          6.20736        5.40557       -0.09668
H          6.48551        6.47047        1.38482
H          3.02770        3.68080        2.69960
H          1.09013       -0.26167        1.57830
