
  xtb     02032211343D
 xtb: 6.4.1 (23d549d)
 20 20  0     0  0            999 V2000
   -4.1150   -0.7474    0.5536 C   0  0  0  0  0  0  0  0  0  0  0  0
   -2.8531   -0.9104    0.1768 C   0  0  0  0  0  0  0  0  0  0  0  0
   -1.8762    0.1534   -0.0297 C   0  0  0  0  0  0  0  0  0  0  0  0
   -2.2113    1.5065   -0.0838 C   0  0  0  0  0  0  0  0  0  0  0  0
   -1.2474    2.4712   -0.3064 C   0  0  0  0  0  0  0  0  0  0  0  0
    0.0781    2.1144   -0.4664 C   0  0  0  0  0  0  0  0  0  0  0  0
    0.4655    0.7769   -0.3960 C   0  0  0  0  0  0  0  0  0  0  0  0
    1.8756    0.4267   -0.5561 C   0  0  0  0  0  0  0  0  0  0  0  0
    2.5255   -0.5123    0.1125 C   0  0  0  0  0  0  0  0  0  0  0  0
    2.0578   -1.2831    1.0783 F   0  0  0  0  0  0  0  0  0  0  0  0
    3.8166   -0.7751   -0.0735 F   0  0  0  0  0  0  0  0  0  0  0  0
   -0.5293   -0.1770   -0.1980 C   0  0  0  0  0  0  0  0  0  0  0  0
   -0.1833   -1.4804   -0.2094 F   0  0  0  0  0  0  0  0  0  0  0  0
   -4.7676   -1.5925    0.6873 H   0  0  0  0  0  0  0  0  0  0  0  0
   -4.5470    0.2184    0.7529 H   0  0  0  0  0  0  0  0  0  0  0  0
   -2.4743   -1.9109    0.0161 H   0  0  0  0  0  0  0  0  0  0  0  0
   -3.2423    1.8000    0.0300 H   0  0  0  0  0  0  0  0  0  0  0  0
   -1.5312    3.5112   -0.3592 H   0  0  0  0  0  0  0  0  0  0  0  0
    0.8303    2.8694   -0.6361 H   0  0  0  0  0  0  0  0  0  0  0  0
    2.4519    1.0070   -1.2606 H   0  0  0  0  0  0  0  0  0  0  0  0
  1  2  2  0  0  0  0
  2  3  1  0  0  0  0
  3  4  4  0  0  0  0
  4  5  4  0  0  0  0
  5  6  4  0  0  0  0
  6  7  4  0  0  0  0
  7  8  1  0  0  0  0
  8  9  2  0  0  0  0
  9 10  1  0  0  0  0
  9 11  1  0  0  0  0
  3 12  4  0  0  0  0
  7 12  4  0  0  0  0
 12 13  1  0  0  0  0
  1 14  1  0  0  0  0
  1 15  1  0  0  0  0
  2 16  1  0  0  0  0
  4 17  1  0  0  0  0
  5 18  1  0  0  0  0
  6 19  1  0  0  0  0
  8 20  1  0  0  0  0
M  END
