
  xtb     02032211343D
 xtb: 6.4.1 (23d549d)
 19 19  0     0  0            999 V2000
    0.0155    2.5316    0.1451 C   0  0  0  0  0  0  0  0  0  0  0  0
    0.6793    1.6843   -0.6267 C   0  0  0  0  0  0  0  0  0  0  0  0
    1.0964    0.3373   -0.2284 C   0  0  0  0  0  0  0  0  0  0  0  0
    2.3273    0.0109   -0.6081 N   0  0  0  0  0  0  0  0  0  0  0  0
    2.8579   -1.1276   -0.2123 C   0  0  0  0  0  0  0  0  0  0  0  0
    2.1983   -2.0195    0.6211 C   0  0  0  0  0  0  0  0  0  0  0  0
    0.8970   -1.7214    0.9818 C   0  0  0  0  0  0  0  0  0  0  0  0
    0.3033   -0.5431    0.5323 C   0  0  0  0  0  0  0  0  0  0  0  0
   -1.1083   -0.3159    0.8448 C   0  0  0  0  0  0  0  0  0  0  0  0
   -2.0225    0.0920   -0.0179 C   0  0  0  0  0  0  0  0  0  0  0  0
   -1.8293    0.4007   -1.2929 F   0  0  0  0  0  0  0  0  0  0  0  0
   -3.3097    0.2460    0.2834 F   0  0  0  0  0  0  0  0  0  0  0  0
   -0.2156    3.5293   -0.1858 H   0  0  0  0  0  0  0  0  0  0  0  0
   -0.3123    2.2700    1.1383 H   0  0  0  0  0  0  0  0  0  0  0  0
    1.0463    1.9915   -1.5955 H   0  0  0  0  0  0  0  0  0  0  0  0
    3.8593   -1.3251   -0.5712 H   0  0  0  0  0  0  0  0  0  0  0  0
    2.6773   -2.9248    0.9587 H   0  0  0  0  0  0  0  0  0  0  0  0
    0.3254   -2.4067    1.5918 H   0  0  0  0  0  0  0  0  0  0  0  0
   -1.4518   -0.5776    1.8347 H   0  0  0  0  0  0  0  0  0  0  0  0
  1  2  2  0  0  0  0
  2  3  1  0  0  0  0
  3  4  4  0  0  0  0
  4  5  4  0  0  0  0
  5  6  4  0  0  0  0
  6  7  4  0  0  0  0
  3  8  4  0  0  0  0
  7  8  4  0  0  0  0
  8  9  1  0  0  0  0
  9 10  2  0  0  0  0
 10 11  1  0  0  0  0
 10 12  1  0  0  0  0
  1 13  1  0  0  0  0
  1 14  1  0  0  0  0
  2 15  1  0  0  0  0
  5 16  1  0  0  0  0
  6 17  1  0  0  0  0
  7 18  1  0  0  0  0
  9 19  1  0  0  0  0
M  END
