
  xtb     02032211173D
 xtb: 6.4.1 (23d549d)
 17 17  0     0  0            999 V2000
    1.0774    0.3817   -0.1586 c   0  0  0  0  0  0  0  0  0  0  0  0
    2.3181    0.8360   -0.0030 c   0  0  0  0  0  0  0  0  0  0  0  0
    3.0660    0.7849    1.2246 c   0  0  0  0  0  0  0  0  0  0  0  0
    2.7628    0.3004    2.4793 c   0  0  0  0  0  0  0  0  0  0  0  0
    3.8943    0.5229    3.2779 c   0  0  0  0  0  0  0  0  0  0  0  0
    4.8314    1.1322    2.4706 c   0  0  0  0  0  0  0  0  0  0  0  0
    6.1700    1.5971    2.7168 c   0  0  0  0  0  0  0  0  0  0  0  0
    6.8042    1.5120    3.8830 c   0  0  0  0  0  0  0  0  0  0  0  0
    4.3210    1.2872    1.2283 o   0  0  0  0  0  0  0  0  0  0  0  0
    0.5715    0.4453   -1.1052 h   0  0  0  0  0  0  0  0  0  0  0  0
    0.5303   -0.0678    0.6523 h   0  0  0  0  0  0  0  0  0  0  0  0
    2.8486    1.2859   -0.8310 h   0  0  0  0  0  0  0  0  0  0  0  0
    1.8433   -0.1564    2.7829 h   0  0  0  0  0  0  0  0  0  0  0  0
    4.0096    0.2700    4.3118 h   0  0  0  0  0  0  0  0  0  0  0  0
    6.6523    2.0436    1.8579 h   0  0  0  0  0  0  0  0  0  0  0  0
    6.3416    1.0759    4.7508 h   0  0  0  0  0  0  0  0  0  0  0  0
    7.8078    1.8797    4.0032 h   0  0  0  0  0  0  0  0  0  0  0  0
  1  2  2  0  0  0  0
  2  3  1  0  0  0  0
  3  4  4  0  0  0  0
  4  5  4  0  0  0  0
  5  6  4  0  0  0  0
  6  7  1  0  0  0  0
  7  8  2  0  0  0  0
  3  9  1  0  0  0  0
  6  9  1  0  0  0  0
  1 10  1  0  0  0  0
  1 11  1  0  0  0  0
  2 12  1  0  0  0  0
  4 13  1  0  0  0  0
  5 14  1  0  0  0  0
  7 15  1  0  0  0  0
  8 16  1  0  0  0  0
  8 17  1  0  0  0  0
M  END
