
  xtb     02032211353D
 xtb: 6.4.1 (23d549d)
 24 24  0     0  0            999 V2000
    3.5164   -1.5632    0.3939 C   0  0  0  0  0  0  0  0  0  0  0  0
    3.1789   -0.2979    0.1751 C   0  0  0  0  0  0  0  0  0  0  0  0
    1.8267    0.2247    0.0287 C   0  0  0  0  0  0  0  0  0  0  0  0
    1.6435    1.5300   -0.4318 C   0  0  0  0  0  0  0  0  0  0  0  0
    0.3778    2.0488   -0.5877 C   0  0  0  0  0  0  0  0  0  0  0  0
   -0.7607    1.3065   -0.2675 C   0  0  0  0  0  0  0  0  0  0  0  0
   -2.0623    1.9617   -0.4190 C   0  0  0  0  0  0  0  0  0  0  0  0
   -3.0569    1.9288    0.4570 C   0  0  0  0  0  0  0  0  0  0  0  0
   -0.5878   -0.0085    0.1789 C   0  0  0  0  0  0  0  0  0  0  0  0
   -1.7659   -0.9111    0.4738 C   0  0  0  0  0  0  0  0  0  0  0  0
   -1.5295   -2.2461   -0.0162 C   0  0  0  0  0  0  0  0  0  0  0  0
   -1.3415   -3.3037   -0.4074 N   0  0  0  0  0  0  0  0  0  0  0  0
    0.6902   -0.5254    0.3217 C   0  0  0  0  0  0  0  0  0  0  0  0
    4.5476   -1.8589    0.4831 H   0  0  0  0  0  0  0  0  0  0  0  0
    2.7909   -2.3537    0.4813 H   0  0  0  0  0  0  0  0  0  0  0  0
    3.9604    0.4455    0.0729 H   0  0  0  0  0  0  0  0  0  0  0  0
    2.5048    2.1344   -0.6779 H   0  0  0  0  0  0  0  0  0  0  0  0
    0.2532    3.0608   -0.9462 H   0  0  0  0  0  0  0  0  0  0  0  0
   -2.1621    2.5662   -1.3129 H   0  0  0  0  0  0  0  0  0  0  0  0
   -2.9874    1.3975    1.3915 H   0  0  0  0  0  0  0  0  0  0  0  0
   -3.9736    2.4678    0.2869 H   0  0  0  0  0  0  0  0  0  0  0  0
   -2.6737   -0.5269    0.0007 H   0  0  0  0  0  0  0  0  0  0  0  0
   -1.9380   -0.9738    1.5543 H   0  0  0  0  0  0  0  0  0  0  0  0
    0.7990   -1.5412    0.6714 H   0  0  0  0  0  0  0  0  0  0  0  0
  1  2  2  0  0  0  0
  2  3  1  0  0  0  0
  3  4  4  0  0  0  0
  4  5  4  0  0  0  0
  5  6  4  0  0  0  0
  6  7  1  0  0  0  0
  7  8  2  0  0  0  0
  6  9  4  0  0  0  0
  9 10  1  0  0  0  0
 10 11  1  0  0  0  0
 11 12  3  0  0  0  0
  3 13  4  0  0  0  0
  9 13  4  0  0  0  0
  1 14  1  0  0  0  0
  1 15  1  0  0  0  0
  2 16  1  0  0  0  0
  4 17  1  0  0  0  0
  5 18  1  0  0  0  0
  7 19  1  0  0  0  0
  8 20  1  0  0  0  0
  8 21  1  0  0  0  0
 10 22  1  0  0  0  0
 10 23  1  0  0  0  0
 13 24  1  0  0  0  0
M  END
