
  xtb     02032211353D
 xtb: 6.4.1 (23d549d)
 23 23  0     0  0            999 V2000
   -4.1709    0.0670    0.2043 C   0  0  0  0  0  0  0  0  0  0  0  0
   -3.3208   -0.9415    0.0570 C   0  0  0  0  0  0  0  0  0  0  0  0
   -1.8744   -0.7692   -0.0178 C   0  0  0  0  0  0  0  0  0  0  0  0
   -1.0326   -1.8706   -0.2066 C   0  0  0  0  0  0  0  0  0  0  0  0
    0.3328   -1.6669   -0.2029 C   0  0  0  0  0  0  0  0  0  0  0  0
    0.8385   -0.3805   -0.0413 C   0  0  0  0  0  0  0  0  0  0  0  0
    2.3198   -0.2197    0.0577 C   0  0  0  0  0  0  0  0  0  0  0  0
    2.7312    0.4351    1.1730 N   0  0  0  0  0  0  0  0  0  0  0  0
    3.0954   -0.6988   -0.7403 O   0  0  0  0  0  0  0  0  0  0  0  0
   -0.0827    0.6782    0.0437 C   0  0  0  0  0  0  0  0  0  0  0  0
    0.2989    2.0920    0.0491 C   0  0  0  0  0  0  0  0  0  0  0  0
    1.3525    2.5960   -0.5784 C   0  0  0  0  0  0  0  0  0  0  0  0
   -1.3897    0.4633    0.0893 N   0  0  0  0  0  0  0  0  0  0  0  0
   -5.2351   -0.0855    0.2566 H   0  0  0  0  0  0  0  0  0  0  0  0
   -3.8077    1.0777    0.2745 H   0  0  0  0  0  0  0  0  0  0  0  0
   -3.6721   -1.9622   -0.0184 H   0  0  0  0  0  0  0  0  0  0  0  0
   -1.4460   -2.8592   -0.3339 H   0  0  0  0  0  0  0  0  0  0  0  0
    1.0227   -2.4911   -0.3114 H   0  0  0  0  0  0  0  0  0  0  0  0
    2.0827    0.9015    1.7812 H   0  0  0  0  0  0  0  0  0  0  0  0
    3.7161    0.6042    1.2952 H   0  0  0  0  0  0  0  0  0  0  0  0
   -0.4139    2.7388    0.5426 H   0  0  0  0  0  0  0  0  0  0  0  0
    2.0412    1.9786   -1.1310 H   0  0  0  0  0  0  0  0  0  0  0  0
    1.5546    3.6537   -0.5778 H   0  0  0  0  0  0  0  0  0  0  0  0
  1  2  2  0  0  0  0
  2  3  1  0  0  0  0
  3  4  4  0  0  0  0
  4  5  4  0  0  0  0
  5  6  4  0  0  0  0
  6  7  1  0  0  0  0
  7  8  4  0  0  0  0
  7  9  2  0  0  0  0
  6 10  4  0  0  0  0
 10 11  1  0  0  0  0
 11 12  2  0  0  0  0
  3 13  4  0  0  0  0
 10 13  4  0  0  0  0
  1 14  1  0  0  0  0
  1 15  1  0  0  0  0
  2 16  1  0  0  0  0
  4 17  1  0  0  0  0
  5 18  1  0  0  0  0
  8 19  1  0  0  0  0
  8 20  1  0  0  0  0
 11 21  1  0  0  0  0
 12 22  1  0  0  0  0
 12 23  1  0  0  0  0
M  END
