
 OpenBabel02032211183D

 26 26  0  0  0  0  0  0  0  0999 V2000
    1.3064    0.8619    0.1358 C   0  0  0  0  0  0  0  0  0  0  0  0
    2.3680    0.0470    0.1012 C   0  0  0  0  0  0  0  0  0  0  0  0
    3.0134   -0.4160    1.3364 C   0  0  0  0  0  0  0  0  0  0  0  0
    4.0370    0.3815    1.8711 C   0  0  0  0  0  0  0  0  0  0  0  0
    4.6757    0.0271    3.0539 C   0  0  0  0  0  0  0  0  0  0  0  0
    5.6662    0.8756    3.4425 O   0  0  0  0  0  0  0  0  0  0  0  0
    5.9473    1.0413    4.8253 C   0  0  0  0  0  0  0  0  0  0  0  0
    5.0904    0.4049    5.6504 F   0  0  0  0  0  0  0  0  0  0  0  0
    7.2003    0.6046    5.0803 F   0  0  0  0  0  0  0  0  0  0  0  0
    5.8946    2.3607    5.1186 F   0  0  0  0  0  0  0  0  0  0  0  0
    4.3213   -1.1578    3.6878 C   0  0  0  0  0  0  0  0  0  0  0  0
    3.2557   -1.9526    3.2128 C   0  0  0  0  0  0  0  0  0  0  0  0
    2.8978   -3.1881    3.9402 C   0  0  0  0  0  0  0  0  0  0  0  0
    2.9369   -3.3194    5.2742 C   0  0  0  0  0  0  0  0  0  0  0  0
    2.5876   -1.5800    2.0208 C   0  0  0  0  0  0  0  0  0  0  0  0
    1.6235   -2.4346    1.4324 N   0  0  0  0  0  0  0  0  0  0  0  0
    0.8394    1.2016   -0.7847 H   0  0  0  0  0  0  0  0  0  0  0  0
    0.8781    1.2069    1.0703 H   0  0  0  0  0  0  0  0  0  0  0  0
    2.7971   -0.2980   -0.8348 H   0  0  0  0  0  0  0  0  0  0  0  0
    4.3354    1.2894    1.3503 H   0  0  0  0  0  0  0  0  0  0  0  0
    4.8768   -1.5014    4.5555 H   0  0  0  0  0  0  0  0  0  0  0  0
    2.5639   -4.0259    3.3321 H   0  0  0  0  0  0  0  0  0  0  0  0
    3.2397   -2.5152    5.9357 H   0  0  0  0  0  0  0  0  0  0  0  0
    2.6527   -4.2586    5.7439 H   0  0  0  0  0  0  0  0  0  0  0  0
    0.9939   -2.8306    2.1231 H   0  0  0  0  0  0  0  0  0  0  0  0
    1.1139   -1.9962    0.6705 H   0  0  0  0  0  0  0  0  0  0  0  0
  1  2  2  0  0  0  0
  1 17  1  0  0  0  0
  1 18  1  0  0  0  0
  2  3  1  0  0  0  0
  2 19  1  0  0  0  0
  3  4  1  0  0  0  0
  3 15  2  0  0  0  0
  4  5  2  0  0  0  0
  4 20  1  0  0  0  0
  5  6  1  0  0  0  0
  5 11  1  0  0  0  0
  6  7  1  0  0  0  0
  7  8  1  0  0  0  0
  7  9  1  0  0  0  0
  7 10  1  0  0  0  0
 11 12  2  0  0  0  0
 11 21  1  0  0  0  0
 12 13  1  0  0  0  0
 12 15  1  0  0  0  0
 13 14  2  0  0  0  0
 13 22  1  0  0  0  0
 14 23  1  0  0  0  0
 14 24  1  0  0  0  0
 15 16  1  0  0  0  0
 16 25  1  0  0  0  0
 16 26  1  0  0  0  0
M  END
