
 OpenBabel02032211253D

 21 21  0  0  0  0  0  0  0  0999 V2000
    2.4219   -1.1942   -0.4156 C   0  0  0  0  0  0  0  0  0  0  0  0
    2.2542    0.1027   -0.1199 C   0  0  0  0  0  0  0  0  0  0  0  0
    3.0568    1.2313   -0.6879 C   0  0  0  0  0  0  0  0  0  0  0  0
    4.1157    1.0219   -1.5989 C   0  0  0  0  0  0  0  0  0  0  0  0
    4.8566    2.1028   -2.1218 C   0  0  0  0  0  0  0  0  0  0  0  0
    5.9846    1.9208   -3.0843 C   0  0  0  0  0  0  0  0  0  0  0  0
    6.4291    0.7420   -3.5420 C   0  0  0  0  0  0  0  0  0  0  0  0
    4.5214    3.4074   -1.7201 C   0  0  0  0  0  0  0  0  0  0  0  0
    5.2074    4.4770   -2.1998 F   0  0  0  0  0  0  0  0  0  0  0  0
    3.4791    3.6283   -0.8202 C   0  0  0  0  0  0  0  0  0  0  0  0
    3.1819    4.9005   -0.4514 F   0  0  0  0  0  0  0  0  0  0  0  0
    2.7451    2.5524   -0.3005 C   0  0  0  0  0  0  0  0  0  0  0  0
    1.7380    2.7815    0.5713 O   0  0  0  0  0  0  0  0  0  0  0  0
    1.7811   -1.9334    0.0545 H   0  0  0  0  0  0  0  0  0  0  0  0
    3.1681   -1.5570   -1.1084 H   0  0  0  0  0  0  0  0  0  0  0  0
    1.4655    0.3352    0.5893 H   0  0  0  0  0  0  0  0  0  0  0  0
    4.3631    0.0220   -1.8997 H   0  0  0  0  0  0  0  0  0  0  0  0
    6.4967    2.8065   -3.4493 H   0  0  0  0  0  0  0  0  0  0  0  0
    6.0043   -0.2086   -3.2509 H   0  0  0  0  0  0  0  0  0  0  0  0
    7.2595    0.7219   -4.2406 H   0  0  0  0  0  0  0  0  0  0  0  0
    1.4904    3.6698    0.8646 H   0  0  0  0  0  0  0  0  0  0  0  0
  1  2  2  0  0  0  0
  1 14  1  0  0  0  0
  1 15  1  0  0  0  0
  2  3  1  0  0  0  0
  2 16  1  0  0  0  0
  3  4  1  0  0  0  0
  3 12  2  0  0  0  0
  4  5  2  0  0  0  0
  4 17  1  0  0  0  0
  5  6  1  0  0  0  0
  5  8  1  0  0  0  0
  6  7  2  0  0  0  0
  6 18  1  0  0  0  0
  7 19  1  0  0  0  0
  7 20  1  0  0  0  0
  8  9  1  0  0  0  0
  8 10  2  0  0  0  0
 10 11  1  0  0  0  0
 10 12  1  0  0  0  0
 12 13  1  0  0  0  0
 13 21  1  0  0  0  0
M  END
