
  xtb     02032211353D
 xtb: 6.4.1 (23d549d)
 37 39  0     0  0            999 V2000
   -6.8678    0.1459    0.5593 C   0  0  0  0  0  0  0  0  0  0  0  0
   -5.6950   -0.3441    0.1788 C   0  0  0  0  0  0  0  0  0  0  0  0
   -4.3836    0.2541    0.4108 C   0  0  0  0  0  0  0  0  0  0  0  0
   -4.1880    1.4650    1.0818 C   0  0  0  0  0  0  0  0  0  0  0  0
   -2.8974    1.9372    1.2451 C   0  0  0  0  0  0  0  0  0  0  0  0
   -1.8401    1.2013    0.7410 C   0  0  0  0  0  0  0  0  0  0  0  0
   -2.1248    0.0030    0.0833 C   0  0  0  0  0  0  0  0  0  0  0  0
   -1.0359   -0.8179   -0.4667 C   0  0  0  0  0  0  0  0  0  0  0  0
   -1.3002   -2.0490   -1.0705 C   0  0  0  0  0  0  0  0  0  0  0  0
   -0.2347   -2.7850   -1.5550 C   0  0  0  0  0  0  0  0  0  0  0  0
    1.0472   -2.2738   -1.4357 C   0  0  0  0  0  0  0  0  0  0  0  0
    1.2140   -1.0271   -0.8287 C   0  0  0  0  0  0  0  0  0  0  0  0
    2.5506   -0.4210   -0.6710 C   0  0  0  0  0  0  0  0  0  0  0  0
    3.5438   -0.5932   -1.6374 C   0  0  0  0  0  0  0  0  0  0  0  0
    4.7758    0.0025   -1.4263 C   0  0  0  0  0  0  0  0  0  0  0  0
    4.9817    0.7422   -0.2765 C   0  0  0  0  0  0  0  0  0  0  0  0
    3.9282    0.8736    0.6338 C   0  0  0  0  0  0  0  0  0  0  0  0
    4.0153    1.6348    1.8764 C   0  0  0  0  0  0  0  0  0  0  0  0
    5.0685    2.3098    2.3185 C   0  0  0  0  0  0  0  0  0  0  0  0
    2.7484    0.2978    0.4233 N   0  0  0  0  0  0  0  0  0  0  0  0
    0.1927   -0.3293   -0.3553 N   0  0  0  0  0  0  0  0  0  0  0  0
   -3.3625   -0.4497   -0.0721 N   0  0  0  0  0  0  0  0  0  0  0  0
   -7.7867   -0.3709    0.3411 H   0  0  0  0  0  0  0  0  0  0  0  0
   -6.9675    1.0723    1.0992 H   0  0  0  0  0  0  0  0  0  0  0  0
   -5.6461   -1.2800   -0.3615 H   0  0  0  0  0  0  0  0  0  0  0  0
   -5.0273    2.0220    1.4662 H   0  0  0  0  0  0  0  0  0  0  0  0
   -2.7196    2.8703    1.7613 H   0  0  0  0  0  0  0  0  0  0  0  0
   -0.8138    1.5141    0.8377 H   0  0  0  0  0  0  0  0  0  0  0  0
   -2.3183   -2.3952   -1.1379 H   0  0  0  0  0  0  0  0  0  0  0  0
   -0.3969   -3.7484   -2.0179 H   0  0  0  0  0  0  0  0  0  0  0  0
    1.9004   -2.8357   -1.7836 H   0  0  0  0  0  0  0  0  0  0  0  0
    3.3495   -1.1573   -2.5363 H   0  0  0  0  0  0  0  0  0  0  0  0
    5.5672   -0.1078   -2.1546 H   0  0  0  0  0  0  0  0  0  0  0  0
    5.9349    1.2106   -0.0914 H   0  0  0  0  0  0  0  0  0  0  0  0
    3.0992    1.6110    2.4504 H   0  0  0  0  0  0  0  0  0  0  0  0
    5.9996    2.3616    1.7793 H   0  0  0  0  0  0  0  0  0  0  0  0
    5.0375    2.8450    3.2521 H   0  0  0  0  0  0  0  0  0  0  0  0
  1  2  2  0  0  0  0
  2  3  1  0  0  0  0
  3  4  4  0  0  0  0
  4  5  4  0  0  0  0
  5  6  4  0  0  0  0
  6  7  4  0  0  0  0
  7  8  1  0  0  0  0
  8  9  4  0  0  0  0
  9 10  4  0  0  0  0
 10 11  4  0  0  0  0
 11 12  4  0  0  0  0
 12 13  1  0  0  0  0
 13 14  4  0  0  0  0
 14 15  4  0  0  0  0
 15 16  4  0  0  0  0
 16 17  4  0  0  0  0
 17 18  1  0  0  0  0
 18 19  2  0  0  0  0
 13 20  4  0  0  0  0
 17 20  4  0  0  0  0
  8 21  4  0  0  0  0
 12 21  4  0  0  0  0
  3 22  4  0  0  0  0
  7 22  4  0  0  0  0
  1 23  1  0  0  0  0
  1 24  1  0  0  0  0
  2 25  1  0  0  0  0
  4 26  1  0  0  0  0
  5 27  1  0  0  0  0
  6 28  1  0  0  0  0
  9 29  1  0  0  0  0
 10 30  1  0  0  0  0
 11 31  1  0  0  0  0
 14 32  1  0  0  0  0
 15 33  1  0  0  0  0
 16 34  1  0  0  0  0
 18 35  1  0  0  0  0
 19 36  1  0  0  0  0
 19 37  1  0  0  0  0
M  END
