
  xtb     02032211343D
 xtb: 6.4.1 (23d549d)
 19 19  0     0  0            999 V2000
    4.7325   -0.4022   -0.0166 C   0  0  0  0  0  0  0  0  0  0  0  0
    3.6884    0.4187   -0.0028 C   0  0  0  0  0  0  0  0  0  0  0  0
    2.2870    0.0308    0.0039 C   0  0  0  0  0  0  0  0  0  0  0  0
    1.8377   -1.2926    0.0281 C   0  0  0  0  0  0  0  0  0  0  0  0
    0.4833   -1.5527    0.0320 C   0  0  0  0  0  0  0  0  0  0  0  0
   -0.4153   -0.4806    0.0118 C   0  0  0  0  0  0  0  0  0  0  0  0
   -1.8468   -0.7313    0.0158 C   0  0  0  0  0  0  0  0  0  0  0  0
   -2.7911    0.2003   -0.0039 C   0  0  0  0  0  0  0  0  0  0  0  0
   -2.6391    1.5073   -0.0306 F   0  0  0  0  0  0  0  0  0  0  0  0
   -4.0909   -0.0897    0.0010 F   0  0  0  0  0  0  0  0  0  0  0  0
    0.0059    0.7830   -0.0105 N   0  0  0  0  0  0  0  0  0  0  0  0
    1.2964    1.0213   -0.0139 C   0  0  0  0  0  0  0  0  0  0  0  0
    5.7401   -0.0239   -0.0217 H   0  0  0  0  0  0  0  0  0  0  0  0
    4.6327   -1.4741   -0.0246 H   0  0  0  0  0  0  0  0  0  0  0  0
    3.8563    1.4887    0.0018 H   0  0  0  0  0  0  0  0  0  0  0  0
    2.5418   -2.1108    0.0453 H   0  0  0  0  0  0  0  0  0  0  0  0
    0.1166   -2.5677    0.0509 H   0  0  0  0  0  0  0  0  0  0  0  0
   -2.1750   -1.7588    0.0363 H   0  0  0  0  0  0  0  0  0  0  0  0
    1.5704    2.0691   -0.0324 H   0  0  0  0  0  0  0  0  0  0  0  0
  1  2  2  0  0  0  0
  2  3  1  0  0  0  0
  3  4  4  0  0  0  0
  4  5  4  0  0  0  0
  5  6  4  0  0  0  0
  6  7  1  0  0  0  0
  7  8  2  0  0  0  0
  8  9  1  0  0  0  0
  8 10  1  0  0  0  0
  6 11  4  0  0  0  0
  3 12  4  0  0  0  0
 11 12  4  0  0  0  0
  1 13  1  0  0  0  0
  1 14  1  0  0  0  0
  2 15  1  0  0  0  0
  4 16  1  0  0  0  0
  5 17  1  0  0  0  0
  7 18  1  0  0  0  0
 12 19  1  0  0  0  0
M  END
