
  xtb     02032211353D
 xtb: 6.4.1 (23d549d)
 20 20  0     0  0            999 V2000
   -3.6780    1.0980   -0.0277 C   0  0  0  0  0  0  0  0  0  0  0  0
   -2.8826    0.0347    0.0005 C   0  0  0  0  0  0  0  0  0  0  0  0
   -1.4277    0.0500    0.0028 C   0  0  0  0  0  0  0  0  0  0  0  0
   -0.6626    1.2169    0.0030 C   0  0  0  0  0  0  0  0  0  0  0  0
    0.7127    1.1531    0.0064 C   0  0  0  0  0  0  0  0  0  0  0  0
    1.3937    2.3203    0.0068 F   0  0  0  0  0  0  0  0  0  0  0  0
    1.4277   -0.0500    0.0083 C   0  0  0  0  0  0  0  0  0  0  0  0
    2.8826   -0.0349    0.0116 C   0  0  0  0  0  0  0  0  0  0  0  0
    3.6778   -1.0976   -0.0379 C   0  0  0  0  0  0  0  0  0  0  0  0
    0.6627   -1.2169    0.0094 C   0  0  0  0  0  0  0  0  0  0  0  0
   -0.7127   -1.1532    0.0071 C   0  0  0  0  0  0  0  0  0  0  0  0
   -1.3936   -2.3204    0.0092 F   0  0  0  0  0  0  0  0  0  0  0  0
   -4.7485    0.9894   -0.0272 H   0  0  0  0  0  0  0  0  0  0  0  0
   -3.3064    2.1078   -0.0533 H   0  0  0  0  0  0  0  0  0  0  0  0
   -3.3218   -0.9538    0.0220 H   0  0  0  0  0  0  0  0  0  0  0  0
   -1.1347    2.1854    0.0021 H   0  0  0  0  0  0  0  0  0  0  0  0
    3.3219    0.9529    0.0548 H   0  0  0  0  0  0  0  0  0  0  0  0
    3.3058   -2.1064   -0.0886 H   0  0  0  0  0  0  0  0  0  0  0  0
    4.7483   -0.9895   -0.0315 H   0  0  0  0  0  0  0  0  0  0  0  0
    1.1349   -2.1854    0.0151 H   0  0  0  0  0  0  0  0  0  0  0  0
  1  2  2  0  0  0  0
  2  3  1  0  0  0  0
  3  4  4  0  0  0  0
  4  5  4  0  0  0  0
  5  6  1  0  0  0  0
  5  7  4  0  0  0  0
  7  8  1  0  0  0  0
  8  9  2  0  0  0  0
  7 10  4  0  0  0  0
  3 11  4  0  0  0  0
 10 11  4  0  0  0  0
 11 12  1  0  0  0  0
  1 13  1  0  0  0  0
  1 14  1  0  0  0  0
  2 15  1  0  0  0  0
  4 16  1  0  0  0  0
  8 17  1  0  0  0  0
  9 18  1  0  0  0  0
  9 19  1  0  0  0  0
 10 20  1  0  0  0  0
M  END
