
 OpenBabel02032210443D

 44 47  0  0  0  0  0  0  0  0999 V2000
    1.2950    0.7366    0.0382 C   0  0  0  0  0  0  0  0  0  0  0  0
    2.4902   -0.0353    0.1286 O   0  0  0  0  0  0  0  0  0  0  0  0
    3.0584   -0.4222   -1.0580 C   0  0  0  0  0  0  0  0  0  0  0  0
    4.2212   -1.1979   -0.9412 C   0  0  0  0  0  0  0  0  0  0  0  0
    4.9108   -1.6437   -2.0949 C   0  0  0  0  0  0  0  0  0  0  0  0
    6.0828   -2.4390   -2.2983 C   0  0  0  0  0  0  0  0  0  0  0  0
    6.9965   -3.0829   -1.4283 C   0  0  0  0  0  0  0  0  0  0  0  0
    8.1124   -3.7660   -1.9358 C   0  0  0  0  0  0  0  0  0  0  0  0
    8.9258   -4.3478   -0.9984 O   0  0  0  0  0  0  0  0  0  0  0  0
   10.0668   -5.0428   -1.4921 C   0  0  0  0  0  0  0  0  0  0  0  0
    8.3313   -3.7935   -3.3054 C   0  0  0  0  0  0  0  0  0  0  0  0
    7.4514   -3.1594   -4.1835 C   0  0  0  0  0  0  0  0  0  0  0  0
    6.3010   -2.5195   -3.6777 C   0  0  0  0  0  0  0  0  0  0  0  0
    5.2736   -1.8166   -4.3180 N   0  0  0  0  0  0  0  0  0  0  0  0
    5.1684   -1.6277   -5.7345 C   0  0  0  0  0  0  0  0  0  0  0  0
    5.5435   -2.6474   -6.6157 C   0  0  0  0  0  0  0  0  0  0  0  0
    5.5923   -2.4105   -7.9924 C   0  0  0  0  0  0  0  0  0  0  0  0
    5.2127   -1.1727   -8.5201 C   0  0  0  0  0  0  0  0  0  0  0  0
    5.3927   -0.9377   -9.9561 C   0  0  0  0  0  0  0  0  0  0  0  0
    4.6299   -0.1674  -10.7354 C   0  0  0  0  0  0  0  0  0  0  0  0
    3.5453    0.4738  -10.2498 F   0  0  0  0  0  0  0  0  0  0  0  0
    4.9475   -0.0392  -12.0409 F   0  0  0  0  0  0  0  0  0  0  0  0
    4.7703   -0.1767   -7.6407 C   0  0  0  0  0  0  0  0  0  0  0  0
    4.7589   -0.3968   -6.2588 C   0  0  0  0  0  0  0  0  0  0  0  0
    4.4161   -1.2835   -3.3539 C   0  0  0  0  0  0  0  0  0  0  0  0
    3.2176   -0.5535   -3.4723 C   0  0  0  0  0  0  0  0  0  0  0  0
    2.5668   -0.1101   -2.3172 C   0  0  0  0  0  0  0  0  0  0  0  0
    0.9562    0.9580    1.0548 H   0  0  0  0  0  0  0  0  0  0  0  0
    0.4986    0.1738   -0.4608 H   0  0  0  0  0  0  0  0  0  0  0  0
    1.4778    1.6915   -0.4656 H   0  0  0  0  0  0  0  0  0  0  0  0
    4.5919   -1.4592    0.0473 H   0  0  0  0  0  0  0  0  0  0  0  0
    6.8438   -3.0360   -0.3528 H   0  0  0  0  0  0  0  0  0  0  0  0
   10.6190   -5.4441   -0.6374 H   0  0  0  0  0  0  0  0  0  0  0  0
   10.7405   -4.3674   -2.0326 H   0  0  0  0  0  0  0  0  0  0  0  0
    9.7714   -5.8889   -2.1237 H   0  0  0  0  0  0  0  0  0  0  0  0
    9.1917   -4.2907   -3.7408 H   0  0  0  0  0  0  0  0  0  0  0  0
    7.6908   -3.1596   -5.2409 H   0  0  0  0  0  0  0  0  0  0  0  0
    5.7986   -3.6415   -6.2574 H   0  0  0  0  0  0  0  0  0  0  0  0
    5.9395   -3.2083   -8.6465 H   0  0  0  0  0  0  0  0  0  0  0  0
    6.2397   -1.4382  -10.4161 H   0  0  0  0  0  0  0  0  0  0  0  0
    4.4737    0.8024   -8.0111 H   0  0  0  0  0  0  0  0  0  0  0  0
    4.4984    0.4402   -5.6171 H   0  0  0  0  0  0  0  0  0  0  0  0
    2.7776   -0.3288   -4.4388 H   0  0  0  0  0  0  0  0  0  0  0  0
    1.6660    0.4790   -2.4522 H   0  0  0  0  0  0  0  0  0  0  0  0
  1  2  1  0  0  0  0
  1 28  1  0  0  0  0
  1 29  1  0  0  0  0
  1 30  1  0  0  0  0
  2  3  1  0  0  0  0
  3  4  1  0  0  0  0
  3 27  2  0  0  0  0
  4  5  2  0  0  0  0
  4 31  1  0  0  0  0
  5  6  1  0  0  0  0
  5 25  1  0  0  0  0
  6  7  2  0  0  0  0
  6 13  1  0  0  0  0
  7  8  1  0  0  0  0
  7 32  1  0  0  0  0
  8  9  1  0  0  0  0
  8 11  2  0  0  0  0
  9 10  1  0  0  0  0
 10 33  1  0  0  0  0
 10 34  1  0  0  0  0
 10 35  1  0  0  0  0
 11 12  1  0  0  0  0
 11 36  1  0  0  0  0
 12 13  2  0  0  0  0
 12 37  1  0  0  0  0
 13 14  1  0  0  0  0
 14 15  1  0  0  0  0
 14 25  1  0  0  0  0
 15 16  1  0  0  0  0
 15 24  2  0  0  0  0
 16 17  2  0  0  0  0
 16 38  1  0  0  0  0
 17 18  1  0  0  0  0
 17 39  1  0  0  0  0
 18 19  1  0  0  0  0
 18 23  2  0  0  0  0
 19 20  2  0  0  0  0
 19 40  1  0  0  0  0
 20 21  1  0  0  0  0
 20 22  1  0  0  0  0
 23 24  1  0  0  0  0
 23 41  1  0  0  0  0
 24 42  1  0  0  0  0
 25 26  2  0  0  0  0
 26 27  1  0  0  0  0
 26 43  1  0  0  0  0
 27 44  1  0  0  0  0
M  END
