
  xtb     02032211343D
 xtb: 6.4.1 (23d549d)
 20 20  0     0  0            999 V2000
   -4.5473   -0.3312   -0.1665 C   0  0  0  0  0  0  0  0  0  0  0  0
   -3.3162   -0.7707    0.0616 C   0  0  0  0  0  0  0  0  0  0  0  0
   -2.1024    0.0390    0.0434 C   0  0  0  0  0  0  0  0  0  0  0  0
   -2.1081    1.4347    0.0453 C   0  0  0  0  0  0  0  0  0  0  0  0
   -0.9259    2.1494    0.0294 C   0  0  0  0  0  0  0  0  0  0  0  0
    0.2954    1.5018    0.0124 C   0  0  0  0  0  0  0  0  0  0  0  0
    0.3557    0.1071    0.0150 C   0  0  0  0  0  0  0  0  0  0  0  0
    1.5914   -0.6592    0.0007 C   0  0  0  0  0  0  0  0  0  0  0  0
    2.8345   -0.2026   -0.0193 C   0  0  0  0  0  0  0  0  0  0  0  0
    3.2417    1.0608   -0.0301 F   0  0  0  0  0  0  0  0  0  0  0  0
    3.8998   -0.9980   -0.0320 F   0  0  0  0  0  0  0  0  0  0  0  0
   -0.8565   -0.5870    0.0338 C   0  0  0  0  0  0  0  0  0  0  0  0
   -0.8154   -1.9389    0.0354 F   0  0  0  0  0  0  0  0  0  0  0  0
   -5.3901   -0.9995   -0.1367 H   0  0  0  0  0  0  0  0  0  0  0  0
   -4.7674    0.6964   -0.3999 H   0  0  0  0  0  0  0  0  0  0  0  0
   -3.1585   -1.8215    0.2652 H   0  0  0  0  0  0  0  0  0  0  0  0
   -3.0495    1.9592    0.0712 H   0  0  0  0  0  0  0  0  0  0  0  0
   -0.9536    3.2284    0.0328 H   0  0  0  0  0  0  0  0  0  0  0  0
    1.2035    2.0804    0.0000 H   0  0  0  0  0  0  0  0  0  0  0  0
    1.4929   -1.7351    0.0059 H   0  0  0  0  0  0  0  0  0  0  0  0
  1  2  2  0  0  0  0
  2  3  1  0  0  0  0
  3  4  4  0  0  0  0
  4  5  4  0  0  0  0
  5  6  4  0  0  0  0
  6  7  4  0  0  0  0
  7  8  1  0  0  0  0
  8  9  2  0  0  0  0
  9 10  1  0  0  0  0
  9 11  1  0  0  0  0
  3 12  4  0  0  0  0
  7 12  4  0  0  0  0
 12 13  1  0  0  0  0
  1 14  1  0  0  0  0
  1 15  1  0  0  0  0
  2 16  1  0  0  0  0
  4 17  1  0  0  0  0
  5 18  1  0  0  0  0
  6 19  1  0  0  0  0
  8 20  1  0  0  0  0
M  END
