
 OpenBabel02012213453D

 18 18  0  0  0  0  0  0  0  0999 V2000
    1.8462    1.5921   -0.0015 C   0  0  0  0  0  0  0  0  0  0  0  0
    0.6138    0.7196    0.0008 C   0  0  0  0  0  0  0  0  0  0  0  0
    0.6248   -0.7072    0.0060 C   0  0  0  0  0  0  0  0  0  0  0  0
    1.8707   -1.5604    0.0130 C   0  0  0  0  0  0  0  0  0  0  0  0
   -0.6016   -1.3974    0.0054 C   0  0  0  0  0  0  0  0  0  0  0  0
   -1.8141   -0.7085    0.0008 C   0  0  0  0  0  0  0  0  0  0  0  0
   -1.8249    0.6830   -0.0033 C   0  0  0  0  0  0  0  0  0  0  0  0
   -0.6234    1.3906   -0.0033 C   0  0  0  0  0  0  0  0  0  0  0  0
    2.8061    1.0542   -0.0022 H   0  0  0  0  0  0  0  0  0  0  0  0
    1.8358    2.2420    0.8990 H   0  0  0  0  0  0  0  0  0  0  0  0
    1.8342    2.2384   -0.9047 H   0  0  0  0  0  0  0  0  0  0  0  0
    2.8221   -1.0077    0.0167 H   0  0  0  0  0  0  0  0  0  0  0  0
    1.8735   -2.2109   -0.8871 H   0  0  0  0  0  0  0  0  0  0  0  0
    1.8656   -2.2063    0.9165 H   0  0  0  0  0  0  0  0  0  0  0  0
   -0.6184   -2.4809    0.0091 H   0  0  0  0  0  0  0  0  0  0  0  0
   -2.7477   -1.2563    0.0005 H   0  0  0  0  0  0  0  0  0  0  0  0
   -2.7669    1.2162   -0.0066 H   0  0  0  0  0  0  0  0  0  0  0  0
   -0.6569    2.4737   -0.0070 H   0  0  0  0  0  0  0  0  0  0  0  0
  1  2  1  0  0  0  0
  1  9  1  0  0  0  0
  1 10  1  0  0  0  0
  1 11  1  0  0  0  0
  2  3  1  0  0  0  0
  2  8  2  0  0  0  0
  3  4  1  0  0  0  0
  3  5  2  0  0  0  0
  4 12  1  0  0  0  0
  4 13  1  0  0  0  0
  4 14  1  0  0  0  0
  5  6  1  0  0  0  0
  5 15  1  0  0  0  0
  6  7  2  0  0  0  0
  6 16  1  0  0  0  0
  7  8  1  0  0  0  0
  7 17  1  0  0  0  0
  8 18  1  0  0  0  0
M  END
