
 OpenBabel02032210433D

 22 23  0  0  0  0  0  0  0  0999 V2000
   -2.4907    1.4622   -0.0251 C   0  0  0  0  0  0  0  0  0  0  0  0
   -1.5647    0.3590   -0.0068 N   0  0  0  0  0  0  0  0  0  0  0  0
   -1.8958   -0.9656    0.0049 C   0  0  0  0  0  0  0  0  0  0  0  0
   -0.8274   -1.7312    0.0118 N   0  0  0  0  0  0  0  0  0  0  0  0
   -0.1963    0.4583   -0.0089 C   0  0  0  0  0  0  0  0  0  0  0  0
    0.2372   -0.8637    0.0014 C   0  0  0  0  0  0  0  0  0  0  0  0
    1.6119   -1.1315    0.0045 C   0  0  0  0  0  0  0  0  0  0  0  0
    2.5102   -0.0526   -0.0088 C   0  0  0  0  0  0  0  0  0  0  0  0
    2.0625    1.2784   -0.0338 C   0  0  0  0  0  0  0  0  0  0  0  0
    3.0674    2.3521   -0.0123 C   0  0  0  0  0  0  0  0  0  0  0  0
    2.9390    3.5744   -0.5401 C   0  0  0  0  0  0  0  0  0  0  0  0
    1.8163    3.9552   -1.1846 F   0  0  0  0  0  0  0  0  0  0  0  0
    3.9667    4.4435   -0.4351 F   0  0  0  0  0  0  0  0  0  0  0  0
    0.6837    1.5498   -0.0170 C   0  0  0  0  0  0  0  0  0  0  0  0
   -3.5155    1.0843    0.0050 H   0  0  0  0  0  0  0  0  0  0  0  0
   -2.3316    2.0313   -0.9447 H   0  0  0  0  0  0  0  0  0  0  0  0
   -2.3013    2.0887    0.8504 H   0  0  0  0  0  0  0  0  0  0  0  0
   -2.9190   -1.3185    0.0072 H   0  0  0  0  0  0  0  0  0  0  0  0
    1.9648   -2.1566    0.0170 H   0  0  0  0  0  0  0  0  0  0  0  0
    3.5757   -0.2754   -0.0069 H   0  0  0  0  0  0  0  0  0  0  0  0
    4.0109    2.1119    0.4697 H   0  0  0  0  0  0  0  0  0  0  0  0
    0.3004    2.5640   -0.0055 H   0  0  0  0  0  0  0  0  0  0  0  0
  1  2  1  0  0  0  0
  1 15  1  0  0  0  0
  1 16  1  0  0  0  0
  1 17  1  0  0  0  0
  2  3  1  0  0  0  0
  2  5  1  0  0  0  0
  3  4  2  0  0  0  0
  3 18  1  0  0  0  0
  4  6  1  0  0  0  0
  5  6  1  0  0  0  0
  5 14  2  0  0  0  0
  6  7  2  0  0  0  0
  7  8  1  0  0  0  0
  7 19  1  0  0  0  0
  8  9  2  0  0  0  0
  8 20  1  0  0  0  0
  9 10  1  0  0  0  0
  9 14  1  0  0  0  0
 10 11  2  0  0  0  0
 10 21  1  0  0  0  0
 11 12  1  0  0  0  0
 11 13  1  0  0  0  0
 14 22  1  0  0  0  0
M  END
