
  xtb     02032211353D
 xtb: 6.4.1 (23d549d)
 48 48  0     0  0            999 V2000
    3.7710   -2.8482    0.2451 C   0  0  0  0  0  0  0  0  0  0  0  0
    3.7560   -1.5207    0.1844 C   0  0  0  0  0  0  0  0  0  0  0  0
    2.5717   -0.6969    0.1002 C   0  0  0  0  0  0  0  0  0  0  0  0
    1.2641   -1.1105    0.1296 C   0  0  0  0  0  0  0  0  0  0  0  0
    0.4232   -0.0405    0.0198 N   0  0  0  0  0  0  0  0  0  0  0  0
   -1.3495   -0.0072    0.0565 Si  0  0  0  0  0  0  0  0  0  0  0  0
   -1.8136    0.5615    1.8397 C   0  0  0  0  0  0  0  0  0  0  0  0
   -1.1261    1.8670    2.2382 C   0  0  0  0  0  0  0  0  0  0  0  0
   -3.3222    0.6962    2.0439 C   0  0  0  0  0  0  0  0  0  0  0  0
   -1.8868    1.2662   -1.2889 C   0  0  0  0  0  0  0  0  0  0  0  0
   -1.0340    1.2065   -2.5579 C   0  0  0  0  0  0  0  0  0  0  0  0
   -3.3612    1.1194   -1.6677 C   0  0  0  0  0  0  0  0  0  0  0  0
   -2.1023   -1.7456   -0.2800 C   0  0  0  0  0  0  0  0  0  0  0  0
   -1.5817   -2.3918   -1.5640 C   0  0  0  0  0  0  0  0  0  0  0  0
   -1.9495   -2.7101    0.8971 C   0  0  0  0  0  0  0  0  0  0  0  0
    1.2062    1.0773   -0.0734 C   0  0  0  0  0  0  0  0  0  0  0  0
    2.5337    0.7353   -0.0298 C   0  0  0  0  0  0  0  0  0  0  0  0
    3.6719    1.6230   -0.1017 C   0  0  0  0  0  0  0  0  0  0  0  0
    3.6124    2.9487   -0.1725 C   0  0  0  0  0  0  0  0  0  0  0  0
    4.6939   -3.3988    0.3069 H   0  0  0  0  0  0  0  0  0  0  0  0
    2.8676   -3.4335    0.2342 H   0  0  0  0  0  0  0  0  0  0  0  0
    4.6974   -0.9870    0.1954 H   0  0  0  0  0  0  0  0  0  0  0  0
    0.8746   -2.1013    0.2308 H   0  0  0  0  0  0  0  0  0  0  0  0
   -1.4547   -0.2091    2.5313 H   0  0  0  0  0  0  0  0  0  0  0  0
   -1.4393    2.6828    1.5903 H   0  0  0  0  0  0  0  0  0  0  0  0
   -0.0453    1.7708    2.1768 H   0  0  0  0  0  0  0  0  0  0  0  0
   -1.3863    2.1333    3.2617 H   0  0  0  0  0  0  0  0  0  0  0  0
   -3.7124    1.5229    1.4554 H   0  0  0  0  0  0  0  0  0  0  0  0
   -3.5481    0.8961    3.0903 H   0  0  0  0  0  0  0  0  0  0  0  0
   -3.8439   -0.2112    1.7506 H   0  0  0  0  0  0  0  0  0  0  0  0
   -1.7626    2.2682   -0.8634 H   0  0  0  0  0  0  0  0  0  0  0  0
   -1.1647    0.2555   -3.0673 H   0  0  0  0  0  0  0  0  0  0  0  0
    0.0222    1.3252   -2.3335 H   0  0  0  0  0  0  0  0  0  0  0  0
   -1.3288    1.9987   -3.2449 H   0  0  0  0  0  0  0  0  0  0  0  0
   -3.5385    0.1636   -2.1544 H   0  0  0  0  0  0  0  0  0  0  0  0
   -3.6534    1.9075   -2.3602 H   0  0  0  0  0  0  0  0  0  0  0  0
   -4.0035    1.1802   -0.7938 H   0  0  0  0  0  0  0  0  0  0  0  0
   -3.1785   -1.5915   -0.4161 H   0  0  0  0  0  0  0  0  0  0  0  0
   -0.5034   -2.5205   -1.5338 H   0  0  0  0  0  0  0  0  0  0  0  0
   -1.8236   -1.7821   -2.4301 H   0  0  0  0  0  0  0  0  0  0  0  0
   -2.0376   -3.3713   -1.7052 H   0  0  0  0  0  0  0  0  0  0  0  0
   -0.9045   -2.9089    1.1171 H   0  0  0  0  0  0  0  0  0  0  0  0
   -2.4305   -3.6604    0.6675 H   0  0  0  0  0  0  0  0  0  0  0  0
   -2.4119   -2.3068    1.7938 H   0  0  0  0  0  0  0  0  0  0  0  0
    0.7574    2.0450   -0.1649 H   0  0  0  0  0  0  0  0  0  0  0  0
    4.6416    1.1428   -0.0943 H   0  0  0  0  0  0  0  0  0  0  0  0
    2.6767    3.4808   -0.1805 H   0  0  0  0  0  0  0  0  0  0  0  0
    4.5034    3.5506   -0.2239 H   0  0  0  0  0  0  0  0  0  0  0  0
  1  2  2  0  0  0  0
  2  3  1  0  0  0  0
  3  4  2  0  0  0  0
  4  5  4  0  0  0  0
  5  6  1  0  0  0  0
  6  7  1  0  0  0  0
  7  8  1  0  0  0  0
  7  9  1  0  0  0  0
  6 10  1  0  0  0  0
 10 11  1  0  0  0  0
 10 12  1  0  0  0  0
  6 13  1  0  0  0  0
 13 14  1  0  0  0  0
 13 15  1  0  0  0  0
  5 16  4  0  0  0  0
  3 17  1  0  0  0  0
 16 17  2  0  0  0  0
 17 18  1  0  0  0  0
 18 19  2  0  0  0  0
  1 20  1  0  0  0  0
  1 21  1  0  0  0  0
  2 22  1  0  0  0  0
  4 23  1  0  0  0  0
  7 24  1  0  0  0  0
  8 25  1  0  0  0  0
  8 26  1  0  0  0  0
  8 27  1  0  0  0  0
  9 28  1  0  0  0  0
  9 29  1  0  0  0  0
  9 30  1  0  0  0  0
 10 31  1  0  0  0  0
 11 32  1  0  0  0  0
 11 33  1  0  0  0  0
 11 34  1  0  0  0  0
 12 35  1  0  0  0  0
 12 36  1  0  0  0  0
 12 37  1  0  0  0  0
 13 38  1  0  0  0  0
 14 39  1  0  0  0  0
 14 40  1  0  0  0  0
 14 41  1  0  0  0  0
 15 42  1  0  0  0  0
 15 43  1  0  0  0  0
 15 44  1  0  0  0  0
 16 45  1  0  0  0  0
 18 46  1  0  0  0  0
 19 47  1  0  0  0  0
 19 48  1  0  0  0  0
M  END
