
 OpenBabel02032211283D

 32 32  0  0  0  0  0  0  0  0999 V2000
    2.3452   -1.3422   -0.8741 C   0  0  0  0  0  0  0  0  0  0  0  0
    2.3956   -0.1686   -0.2263 C   0  0  0  0  0  0  0  0  0  0  0  0
    3.0103    1.0523   -0.7853 C   0  0  0  0  0  0  0  0  0  0  0  0
    4.1902    0.9205   -1.5411 C   0  0  0  0  0  0  0  0  0  0  0  0
    4.8368    2.0247   -2.1294 C   0  0  0  0  0  0  0  0  0  0  0  0
    6.0876    1.7107   -2.8705 C   0  0  0  0  0  0  0  0  0  0  0  0
    6.2614    0.6596   -3.4674 O   0  0  0  0  0  0  0  0  0  0  0  0
    7.0115    2.6825   -2.6819 O   0  0  0  0  0  0  0  0  0  0  0  0
    8.2838    2.4334   -3.2836 C   0  0  0  0  0  0  0  0  0  0  0  0
    4.2934    3.3127   -1.9912 C   0  0  0  0  0  0  0  0  0  0  0  0
    4.7862    4.4709   -2.7616 C   0  0  0  0  0  0  0  0  0  0  0  0
    4.7747    5.7451   -2.3486 C   0  0  0  0  0  0  0  0  0  0  0  0
    3.1570    3.4567   -1.1757 C   0  0  0  0  0  0  0  0  0  0  0  0
    2.5265    2.3538   -0.5596 C   0  0  0  0  0  0  0  0  0  0  0  0
    1.3821    2.7025    0.3270 C   0  0  0  0  0  0  0  0  0  0  0  0
    1.3746    3.7172    1.0093 O   0  0  0  0  0  0  0  0  0  0  0  0
    0.3730    1.8103    0.2244 O   0  0  0  0  0  0  0  0  0  0  0  0
   -0.7606    2.0986    1.0489 C   0  0  0  0  0  0  0  0  0  0  0  0
    1.8582   -2.2002   -0.4215 H   0  0  0  0  0  0  0  0  0  0  0  0
    2.7644   -1.4899   -1.8658 H   0  0  0  0  0  0  0  0  0  0  0  0
    1.9288   -0.0880    0.7504 H   0  0  0  0  0  0  0  0  0  0  0  0
    4.6350   -0.0663   -1.6761 H   0  0  0  0  0  0  0  0  0  0  0  0
    8.7815    3.3959   -3.4321 H   0  0  0  0  0  0  0  0  0  0  0  0
    8.1925    1.9450   -4.2592 H   0  0  0  0  0  0  0  0  0  0  0  0
    8.8914    1.8261   -2.6068 H   0  0  0  0  0  0  0  0  0  0  0  0
    5.1809    4.2515   -3.7521 H   0  0  0  0  0  0  0  0  0  0  0  0
    4.4124    6.0484   -1.3720 H   0  0  0  0  0  0  0  0  0  0  0  0
    5.1495    6.5302   -2.9991 H   0  0  0  0  0  0  0  0  0  0  0  0
    2.7219    4.4453   -1.0266 H   0  0  0  0  0  0  0  0  0  0  0  0
   -1.6194    1.5524    0.6486 H   0  0  0  0  0  0  0  0  0  0  0  0
   -1.0083    3.1653    1.0500 H   0  0  0  0  0  0  0  0  0  0  0  0
   -0.5705    1.7505    2.0690 H   0  0  0  0  0  0  0  0  0  0  0  0
  1  2  2  0  0  0  0
  1 19  1  0  0  0  0
  1 20  1  0  0  0  0
  2  3  1  0  0  0  0
  2 21  1  0  0  0  0
  3  4  1  0  0  0  0
  3 14  2  0  0  0  0
  4  5  2  0  0  0  0
  4 22  1  0  0  0  0
  5  6  1  0  0  0  0
  5 10  1  0  0  0  0
  6  7  2  0  0  0  0
  6  8  1  0  0  0  0
  8  9  1  0  0  0  0
  9 23  1  0  0  0  0
  9 24  1  0  0  0  0
  9 25  1  0  0  0  0
 10 11  1  0  0  0  0
 10 13  2  0  0  0  0
 11 12  2  0  0  0  0
 11 26  1  0  0  0  0
 12 27  1  0  0  0  0
 12 28  1  0  0  0  0
 13 14  1  0  0  0  0
 13 29  1  0  0  0  0
 14 15  1  0  0  0  0
 15 16  2  0  0  0  0
 15 17  1  0  0  0  0
 17 18  1  0  0  0  0
 18 30  1  0  0  0  0
 18 31  1  0  0  0  0
 18 32  1  0  0  0  0
M  END
