
 OpenBabel02032210513D

 24 25  0  0  0  0  0  0  0  0999 V2000
    1.1260   -0.3841    0.1829 C   0  0  0  0  0  0  0  0  0  0  0  0
    2.1758    0.3701   -0.1591 C   0  0  0  0  0  0  0  0  0  0  0  0
    3.0548    1.0335    0.8257 C   0  0  0  0  0  0  0  0  0  0  0  0
    2.9545    1.0018    2.2164 C   0  0  0  0  0  0  0  0  0  0  0  0
    3.9577    1.7364    2.8599 C   0  0  0  0  0  0  0  0  0  0  0  0
    4.8457    2.3452    1.9792 C   0  0  0  0  0  0  0  0  0  0  0  0
    6.0042    3.1701    2.3562 C   0  0  0  0  0  0  0  0  0  0  0  0
    6.8911    3.7807    1.4772 C   0  0  0  0  0  0  0  0  0  0  0  0
    7.9082    4.4970    2.1210 C   0  0  0  0  0  0  0  0  0  0  0  0
    7.8222    4.4497    3.5143 C   0  0  0  0  0  0  0  0  0  0  0  0
    8.7117    5.0718    4.5220 C   0  0  0  0  0  0  0  0  0  0  0  0
    9.7974    5.8104    4.2488 C   0  0  0  0  0  0  0  0  0  0  0  0
   10.2007    6.0697    2.9793 F   0  0  0  0  0  0  0  0  0  0  0  0
   10.5272    6.3200    5.2752 F   0  0  0  0  0  0  0  0  0  0  0  0
    6.4815    3.5216    3.9303 S   0  0  0  0  0  0  0  0  0  0  0  0
    4.3836    1.9737    0.4035 S   0  0  0  0  0  0  0  0  0  0  0  0
    0.5208   -0.8457   -0.5908 H   0  0  0  0  0  0  0  0  0  0  0  0
    0.8525   -0.5553    1.2176 H   0  0  0  0  0  0  0  0  0  0  0  0
    2.3971    0.5008   -1.2142 H   0  0  0  0  0  0  0  0  0  0  0  0
    2.1886    0.4682    2.7618 H   0  0  0  0  0  0  0  0  0  0  0  0
    4.0293    1.8149    3.9368 H   0  0  0  0  0  0  0  0  0  0  0  0
    6.8125    3.7129    0.4001 H   0  0  0  0  0  0  0  0  0  0  0  0
    8.6694    5.0208    1.5643 H   0  0  0  0  0  0  0  0  0  0  0  0
    8.4613    4.9115    5.5667 H   0  0  0  0  0  0  0  0  0  0  0  0
  1  2  2  0  0  0  0
  1 17  1  0  0  0  0
  1 18  1  0  0  0  0
  2  3  1  0  0  0  0
  2 19  1  0  0  0  0
  3  4  2  0  0  0  0
  3 16  1  0  0  0  0
  4  5  1  0  0  0  0
  4 20  1  0  0  0  0
  5  6  2  0  0  0  0
  5 21  1  0  0  0  0
  6  7  1  0  0  0  0
  6 16  1  0  0  0  0
  7  8  2  0  0  0  0
  7 15  1  0  0  0  0
  8  9  1  0  0  0  0
  8 22  1  0  0  0  0
  9 10  2  0  0  0  0
  9 23  1  0  0  0  0
 10 11  1  0  0  0  0
 10 15  1  0  0  0  0
 11 12  2  0  0  0  0
 11 24  1  0  0  0  0
 12 13  1  0  0  0  0
 12 14  1  0  0  0  0
M  END
