
 OpenBabel02032211293D

 24 24  0  0  0  0  0  0  0  0999 V2000
    1.1132   -0.8819   -0.1513 C   0  0  0  0  0  0  0  0  0  0  0  0
    2.2143   -0.1524    0.0604 C   0  0  0  0  0  0  0  0  0  0  0  0
    3.0009   -0.2208    1.3167 C   0  0  0  0  0  0  0  0  0  0  0  0
    2.7282   -1.0075    2.4255 C   0  0  0  0  0  0  0  0  0  0  0  0
    3.7246   -0.7448    3.3445 C   0  0  0  0  0  0  0  0  0  0  0  0
    3.8419   -1.3598    4.6780 C   0  0  0  0  0  0  0  0  0  0  0  0
    4.7684   -1.0435    5.4118 O   0  0  0  0  0  0  0  0  0  0  0  0
    2.9227   -2.2752    5.0781 O   0  0  0  0  0  0  0  0  0  0  0  0
    2.9527   -2.9064    6.3035 C   0  0  0  0  0  0  0  0  0  0  0  0
    4.5894    0.1621    2.8504 N   0  0  0  0  0  0  0  0  0  0  0  0
    4.1605    0.4911    1.6123 C   0  0  0  0  0  0  0  0  0  0  0  0
    4.8357    1.4626    0.7149 C   0  0  0  0  0  0  0  0  0  0  0  0
    5.9640    2.1024    1.0419 C   0  0  0  0  0  0  0  0  0  0  0  0
    0.5799   -0.7901   -1.0922 H   0  0  0  0  0  0  0  0  0  0  0  0
    0.7281   -1.5720    0.5902 H   0  0  0  0  0  0  0  0  0  0  0  0
    2.5353    0.5134   -0.7324 H   0  0  0  0  0  0  0  0  0  0  0  0
    1.9039   -1.6950    2.5585 H   0  0  0  0  0  0  0  0  0  0  0  0
    2.0950   -3.6064    6.3737 H   0  0  0  0  0  0  0  0  0  0  0  0
    2.8730   -2.1584    7.1213 H   0  0  0  0  0  0  0  0  0  0  0  0
    3.8957   -3.4837    6.4135 H   0  0  0  0  0  0  0  0  0  0  0  0
    5.4300    0.5293    3.3478 H   0  0  0  0  0  0  0  0  0  0  0  0
    4.4066    1.6722   -0.2581 H   0  0  0  0  0  0  0  0  0  0  0  0
    6.4629    1.9515    1.9910 H   0  0  0  0  0  0  0  0  0  0  0  0
    6.4083    2.7997    0.3388 H   0  0  0  0  0  0  0  0  0  0  0  0
  1  2  2  0  0  0  0
  1 14  1  0  0  0  0
  1 15  1  0  0  0  0
  2  3  1  0  0  0  0
  2 16  1  0  0  0  0
  3  4  1  0  0  0  0
  3 11  2  0  0  0  0
  4  5  2  0  0  0  0
  4 17  1  0  0  0  0
  5  6  1  0  0  0  0
  5 10  1  0  0  0  0
  6  7  2  0  0  0  0
  6  8  1  0  0  0  0
  8  9  1  0  0  0  0
  9 18  1  0  0  0  0
  9 19  1  0  0  0  0
  9 20  1  0  0  0  0
 10 11  1  0  0  0  0
 10 21  1  0  0  0  0
 11 12  1  0  0  0  0
 12 13  2  0  0  0  0
 12 22  1  0  0  0  0
 13 23  1  0  0  0  0
 13 24  1  0  0  0  0
M  END
