 xtb: 6.5.0 (unknown)
          08122213093D

 23  0  0     0  0            999 V2000
   -4.7335   -1.0208   -0.0555 C   0  0  0  0  0  0  0  0  0  0  0  0
   -3.8328   -0.0671   -0.2611 C   0  0  0  0  0  0  0  0  0  0  0  0
   -2.4071   -0.1405    0.0303 C   0  0  0  0  0  0  0  0  0  0  0  0
   -1.8179   -1.2145    0.7003 C   0  0  0  0  0  0  0  0  0  0  0  0
   -0.4629   -1.2227    0.9397 C   0  0  0  0  0  0  0  0  0  0  0  0
    0.3617   -0.1817    0.5073 C   0  0  0  0  0  0  0  0  0  0  0  0
    1.7928   -0.3044    0.7928 C   0  0  0  0  0  0  0  0  0  0  0  0
    2.7909   -0.0806   -0.0434 C   0  0  0  0  0  0  0  0  0  0  0  0
    2.7112    0.2939   -1.3147 F   0  0  0  0  0  0  0  0  0  0  0  0
    4.0751   -0.2379    0.2811 F   0  0  0  0  0  0  0  0  0  0  0  0
   -0.2144    0.9208   -0.1343 C   0  0  0  0  0  0  0  0  0  0  0  0
    0.5845    2.1174   -0.5499 C   0  0  0  0  0  0  0  0  0  0  0  0
   -1.5835    0.9145   -0.3572 C   0  0  0  0  0  0  0  0  0  0  0  0
   -5.7696   -0.8751   -0.3087 H   0  0  0  0  0  0  0  0  0  0  0  0
   -4.4828   -1.9799    0.3640 H   0  0  0  0  0  0  0  0  0  0  0  0
   -4.1539    0.8706   -0.6987 H   0  0  0  0  0  0  0  0  0  0  0  0
   -2.4216   -2.0396    1.0433 H   0  0  0  0  0  0  0  0  0  0  0  0
   -0.0163   -2.0591    1.4582 H   0  0  0  0  0  0  0  0  0  0  0  0
    2.0683   -0.6768    1.7693 H   0  0  0  0  0  0  0  0  0  0  0  0
    1.4214    2.2865    0.1244 H   0  0  0  0  0  0  0  0  0  0  0  0
   -0.0440    3.0049   -0.5573 H   0  0  0  0  0  0  0  0  0  0  0  0
    0.9825    1.9798   -1.5547 H   0  0  0  0  0  0  0  0  0  0  0  0
   -2.0283    1.7669   -0.8525 H   0  0  0  0  0  0  0  0  0  0  0  0
M  END
