
 OpenBabel02012213503D

 21 21  0  0  0  0  0  0  0  0999 V2000
    2.8748    0.0000   -0.0450 C   0  0  0  0  0  0  0  0  0  0  0  0
    1.3735   -0.0091   -0.0245 C   0  0  0  0  0  0  0  0  0  0  0  0
    0.6711   -1.2113    0.0620 C   0  0  0  0  0  0  0  0  0  0  0  0
   -0.7192   -1.2089    0.0863 C   0  0  0  0  0  0  0  0  0  0  0  0
   -1.4445   -0.0059    0.0239 C   0  0  0  0  0  0  0  0  0  0  0  0
   -2.9503   -0.1010    0.0544 C   0  0  0  0  0  0  0  0  0  0  0  0
   -0.7445    1.2391   -0.0694 C   0  0  0  0  0  0  0  0  0  0  0  0
   -1.4583    2.5672   -0.1453 C   0  0  0  0  0  0  0  0  0  0  0  0
   -2.6726    2.6200   -0.0498 O   0  0  0  0  0  0  0  0  0  0  0  0
   -0.8057    3.7401   -0.3260 O   0  0  0  0  0  0  0  0  0  0  0  0
    0.6705    1.2005   -0.0911 C   0  0  0  0  0  0  0  0  0  0  0  0
    3.2913   -1.0282    0.0130 H   0  0  0  0  0  0  0  0  0  0  0  0
    3.2558    0.5814    0.8212 H   0  0  0  0  0  0  0  0  0  0  0  0
    3.2327    0.4711   -0.9844 H   0  0  0  0  0  0  0  0  0  0  0  0
    1.1993   -2.1556    0.1134 H   0  0  0  0  0  0  0  0  0  0  0  0
   -1.2329   -2.1604    0.1545 H   0  0  0  0  0  0  0  0  0  0  0  0
   -3.3007   -1.1532    0.1189 H   0  0  0  0  0  0  0  0  0  0  0  0
   -3.3757    0.3331   -0.8747 H   0  0  0  0  0  0  0  0  0  0  0  0
   -3.3471    0.4325    0.9432 H   0  0  0  0  0  0  0  0  0  0  0  0
    0.1435    3.8383   -0.4568 H   0  0  0  0  0  0  0  0  0  0  0  0
    1.2594    2.1011   -0.1529 H   0  0  0  0  0  0  0  0  0  0  0  0
  1  2  1  0  0  0  0
  1 12  1  0  0  0  0
  1 13  1  0  0  0  0
  1 14  1  0  0  0  0
  2  3  1  0  0  0  0
  2 11  2  0  0  0  0
  3  4  2  0  0  0  0
  3 15  1  0  0  0  0
  4  5  1  0  0  0  0
  4 16  1  0  0  0  0
  5  6  1  0  0  0  0
  5  7  2  0  0  0  0
  6 17  1  0  0  0  0
  6 18  1  0  0  0  0
  6 19  1  0  0  0  0
  7  8  1  0  0  0  0
  7 11  1  0  0  0  0
  8  9  2  0  0  0  0
  8 10  1  0  0  0  0
 10 20  1  0  0  0  0
 11 21  1  0  0  0  0
M  END
