30

C          2.95838       -2.19704        1.70532
O          3.49133       -2.02391        0.44191
C          2.96880       -1.24830       -0.54400
O          2.83682       -0.04495       -0.36185
C          2.52840       -1.84930       -1.84630
C          3.21590       -2.98390       -2.31960
C          2.88490       -3.60460       -3.53450
C          3.68920       -4.81070       -3.95500
C          1.82480       -3.07980       -4.32110
C          1.40690       -3.65720       -5.63890
O          0.93070       -2.94938       -6.51493
O          1.54053       -4.99256       -5.85631
C          0.48901       -5.83644       -6.14522
C          1.13240       -1.95280       -3.84500
C          1.46150       -1.33320       -2.62800
C          0.65070       -0.13130       -2.20850
H          2.73957       -3.27379        1.86061
H          2.02017       -1.62232        1.85806
H          3.70139       -1.87138        2.46189
H          4.03140       -3.39260       -1.73500
H          4.47590       -5.06770       -3.21410
H          4.19730       -4.60860       -4.92110
H          3.02420       -5.69420       -4.05160
H          0.87289       -6.87096       -6.25918
H         -0.00065       -5.52779       -7.09338
H         -0.25217       -5.82054       -5.31722
H          0.31890       -1.54370       -4.43190
H         -0.14400        0.11500       -2.94440
H          1.30720        0.75930       -2.12220
H          0.15010       -0.33510       -1.23870
30

C          2.13369        0.66399        0.72305
O          2.84316        0.08475       -0.31202
C          2.96880       -1.24830       -0.54400
O          3.46577       -1.96772        0.31280
C          2.52840       -1.84930       -1.84630
C          3.21590       -2.98390       -2.31960
C          2.88490       -3.60460       -3.53450
C          3.68920       -4.81070       -3.95500
C          1.82480       -3.07980       -4.32110
C          1.40690       -3.65720       -5.63890
O          0.93070       -2.94938       -6.51493
O          1.54053       -4.99256       -5.85631
C          0.48901       -5.83644       -6.14522
C          1.13240       -1.95280       -3.84500
C          1.46150       -1.33320       -2.62800
C          0.65070       -0.13130       -2.20850
H          2.82554        1.27811        1.33590
H          1.64995       -0.08590        1.38451
H          1.34856        1.32465        0.30161
H          4.03140       -3.39260       -1.73500
H          4.47590       -5.06770       -3.21410
H          4.19730       -4.60860       -4.92110
H          3.02420       -5.69420       -4.05160
H          0.87289       -6.87096       -6.25918
H         -0.00065       -5.52779       -7.09338
H         -0.25217       -5.82054       -5.31722
H          0.31890       -1.54370       -4.43190
H         -0.14400        0.11500       -2.94440
H          1.30720        0.75930       -2.12220
H          0.15010       -0.33510       -1.23870
30

C          2.13369        0.66399        0.72305
O          2.84316        0.08475       -0.31202
C          2.96880       -1.24830       -0.54400
O          3.46577       -1.96772        0.31280
C          2.52840       -1.84930       -1.84630
C          3.21590       -2.98390       -2.31960
C          2.88490       -3.60460       -3.53450
C          3.68920       -4.81070       -3.95500
C          1.82480       -3.07980       -4.32110
C          1.40690       -3.65720       -5.63890
O          0.24666       -3.58716       -6.01856
O          2.32832       -4.28678       -6.41537
C          2.65827       -3.89243       -7.69480
C          1.13240       -1.95280       -3.84500
C          1.46150       -1.33320       -2.62800
C          0.65070       -0.13130       -2.20850
H          2.82554        1.27811        1.33590
H          1.64995       -0.08590        1.38451
H          1.34856        1.32465        0.30161
H          4.03140       -3.39260       -1.73500
H          4.47590       -5.06770       -3.21410
H          4.19730       -4.60860       -4.92110
H          3.02420       -5.69420       -4.05160
H          3.42103       -4.58596       -8.10444
H          3.07691       -2.86353       -7.68266
H          1.75978       -3.92467       -8.34814
H          0.31890       -1.54370       -4.43190
H         -0.14400        0.11500       -2.94440
H          1.30720        0.75930       -2.12220
H          0.15010       -0.33510       -1.23870
30

C          4.70290       -1.97517        1.01299
O          4.26071       -1.34175       -0.13308
C          2.96880       -1.24830       -0.54400
O          2.14709       -0.68302        0.16586
C          2.52840       -1.84930       -1.84630
C          3.21590       -2.98390       -2.31960
C          2.88490       -3.60460       -3.53450
C          3.68920       -4.81070       -3.95500
C          1.82480       -3.07980       -4.32110
C          1.40690       -3.65720       -5.63890
O          2.21273       -4.22452       -6.36278
O          0.11571       -3.53034       -6.04515
C         -0.27004       -2.88167       -7.19916
C          1.13240       -1.95280       -3.84500
C          1.46150       -1.33320       -2.62800
C          0.65070       -0.13130       -2.20850
H          5.41109       -2.78121        0.72985
H          3.87525       -2.42540        1.60134
H          5.23493       -1.24141        1.65257
H          4.03140       -3.39260       -1.73500
H          4.47590       -5.06770       -3.21410
H          4.19730       -4.60860       -4.92110
H          3.02420       -5.69420       -4.05160
H         -1.37594       -2.91089       -7.28115
H          0.17004       -3.38436       -8.08666
H          0.05709       -1.81997       -7.16816
H          0.31890       -1.54370       -4.43190
H         -0.14400        0.11500       -2.94440
H          1.30720        0.75930       -2.12220
H          0.15010       -0.33510       -1.23870
30

C          4.70290       -1.97517        1.01299
O          4.26071       -1.34175       -0.13308
C          2.96880       -1.24830       -0.54400
O          2.14709       -0.68302        0.16586
C          2.52840       -1.84930       -1.84630
C          3.21590       -2.98390       -2.31960
C          2.88490       -3.60460       -3.53450
C          3.68920       -4.81070       -3.95500
C          1.82480       -3.07980       -4.32110
C          1.40690       -3.65720       -5.63890
O          1.54312       -4.84884       -5.87688
O          0.88687       -2.83946       -6.59241
C         -0.37428       -2.98574       -7.13039
C          1.13240       -1.95280       -3.84500
C          1.46150       -1.33320       -2.62800
C          0.65070       -0.13130       -2.20850
H          5.41109       -2.78121        0.72985
H          3.87525       -2.42540        1.60134
H          5.23493       -1.24141        1.65257
H          4.03140       -3.39260       -1.73500
H          4.47590       -5.06770       -3.21410
H          4.19730       -4.60860       -4.92110
H          3.02420       -5.69420       -4.05160
H         -0.53765       -2.19881       -7.89501
H         -1.14406       -2.88132       -6.33631
H         -0.46903       -3.98049       -7.61688
H          0.31890       -1.54370       -4.43190
H         -0.14400        0.11500       -2.94440
H          1.30720        0.75930       -2.12220
H          0.15010       -0.33510       -1.23870
30

C          4.70290       -1.97517        1.01299
O          4.26071       -1.34175       -0.13308
C          2.96880       -1.24830       -0.54400
O          2.14709       -0.68302        0.16586
C          2.52840       -1.84930       -1.84630
C          3.21590       -2.98390       -2.31960
C          2.88490       -3.60460       -3.53450
C          3.68920       -4.81070       -3.95500
C          1.82480       -3.07980       -4.32110
C          1.40690       -3.65720       -5.63890
O          0.93070       -2.94938       -6.51493
O          1.54053       -4.99256       -5.85631
C          2.30896       -5.53741       -6.86327
C          1.13240       -1.95280       -3.84500
C          1.46150       -1.33320       -2.62800
C          0.65070       -0.13130       -2.20850
H          5.41109       -2.78121        0.72985
H          3.87525       -2.42540        1.60134
H          5.23493       -1.24141        1.65257
H          4.03140       -3.39260       -1.73500
H          4.47590       -5.06770       -3.21410
H          4.19730       -4.60860       -4.92110
H          3.02420       -5.69420       -4.05160
H          2.22875       -6.64317       -6.82497
H          3.37362       -5.24903       -6.73153
H          1.94486       -5.18777       -7.85340
H          0.31890       -1.54370       -4.43190
H         -0.14400        0.11500       -2.94440
H          1.30720        0.75930       -2.12220
H          0.15010       -0.33510       -1.23870
30

C          4.70290       -1.97517        1.01299
O          4.26071       -1.34175       -0.13308
C          2.96880       -1.24830       -0.54400
O          2.14709       -0.68302        0.16586
C          2.52840       -1.84930       -1.84630
C          3.21590       -2.98390       -2.31960
C          2.88490       -3.60460       -3.53450
C          3.68920       -4.81070       -3.95500
C          1.82480       -3.07980       -4.32110
C          1.40690       -3.65720       -5.63890
O          0.24666       -3.58716       -6.01856
O          2.32832       -4.28678       -6.41537
C          2.65827       -3.89243       -7.69480
C          1.13240       -1.95280       -3.84500
C          1.46150       -1.33320       -2.62800
C          0.65070       -0.13130       -2.20850
H          5.41109       -2.78121        0.72985
H          3.87525       -2.42540        1.60134
H          5.23493       -1.24141        1.65257
H          4.03140       -3.39260       -1.73500
H          4.47590       -5.06770       -3.21410
H          4.19730       -4.60860       -4.92110
H          3.02420       -5.69420       -4.05160
H          3.42103       -4.58596       -8.10444
H          3.07691       -2.86353       -7.68266
H          1.75978       -3.92467       -8.34814
H          0.31890       -1.54370       -4.43190
H         -0.14400        0.11500       -2.94440
H          1.30720        0.75930       -2.12220
H          0.15010       -0.33510       -1.23870
30

C          3.38669       -1.78841        1.79978
O          3.49133       -2.02391        0.44191
C          2.96880       -1.24830       -0.54400
O          2.83682       -0.04495       -0.36185
C          2.52840       -1.84930       -1.84630
C          3.21590       -2.98390       -2.31960
C          2.88490       -3.60460       -3.53450
C          3.68920       -4.81070       -3.95500
C          1.82480       -3.07980       -4.32110
C          1.40690       -3.65720       -5.63890
O          1.54312       -4.84884       -5.87688
O          0.88687       -2.83946       -6.59241
C         -0.37428       -2.98574       -7.13039
C          1.13240       -1.95280       -3.84500
C          1.46150       -1.33320       -2.62800
C          0.65070       -0.13130       -2.20850
H          2.87739       -2.65071        2.27774
H          2.81122       -0.86731        2.03276
H          4.40363       -1.69054        2.23197
H          4.03140       -3.39260       -1.73500
H          4.47590       -5.06770       -3.21410
H          4.19730       -4.60860       -4.92110
H          3.02420       -5.69420       -4.05160
H         -0.53765       -2.19881       -7.89501
H         -1.14406       -2.88132       -6.33631
H         -0.46903       -3.98049       -7.61688
H          0.31890       -1.54370       -4.43190
H         -0.14400        0.11500       -2.94440
H          1.30720        0.75930       -2.12220
H          0.15010       -0.33510       -1.23870
30

C          2.13369        0.66399        0.72305
O          2.84316        0.08475       -0.31202
C          2.96880       -1.24830       -0.54400
O          3.46577       -1.96772        0.31280
C          2.52840       -1.84930       -1.84630
C          3.21590       -2.98390       -2.31960
C          2.88490       -3.60460       -3.53450
C          3.68920       -4.81070       -3.95500
C          1.82480       -3.07980       -4.32110
C          1.40690       -3.65720       -5.63890
O          2.21273       -4.22452       -6.36278
O          0.11571       -3.53034       -6.04515
C         -0.27004       -2.88167       -7.19916
C          1.13240       -1.95280       -3.84500
C          1.46150       -1.33320       -2.62800
C          0.65070       -0.13130       -2.20850
H          2.82554        1.27811        1.33590
H          1.64995       -0.08590        1.38451
H          1.34856        1.32465        0.30161
H          4.03140       -3.39260       -1.73500
H          4.47590       -5.06770       -3.21410
H          4.19730       -4.60860       -4.92110
H          3.02420       -5.69420       -4.05160
H         -1.37594       -2.91089       -7.28115
H          0.17004       -3.38436       -8.08666
H          0.05709       -1.81997       -7.16816
H          0.31890       -1.54370       -4.43190
H         -0.14400        0.11500       -2.94440
H          1.30720        0.75930       -2.12220
H          0.15010       -0.33510       -1.23870
30

C          2.17150        0.74858        0.61205
O          2.09002       -0.58300        0.25083
C          2.96880       -1.24830       -0.54400
O          4.14094       -1.34312       -0.20377
C          2.52840       -1.84930       -1.84630
C          3.21590       -2.98390       -2.31960
C          2.88490       -3.60460       -3.53450
C          3.68920       -4.81070       -3.95500
C          1.82480       -3.07980       -4.32110
C          1.40690       -3.65720       -5.63890
O          1.97537       -4.63255       -6.10872
O          0.39297       -3.07495       -6.33261
C         -0.05426       -3.51479       -7.56055
C          1.13240       -1.95280       -3.84500
C          1.46150       -1.33320       -2.62800
C          0.65070       -0.13130       -2.20850
H          1.25881        1.27415        0.26252
H          3.05811        1.25781        0.17791
H          2.22492        0.82354        1.71751
H          4.03140       -3.39260       -1.73500
H          4.47590       -5.06770       -3.21410
H          4.19730       -4.60860       -4.92110
H          3.02420       -5.69420       -4.05160
H         -0.87482       -2.85381       -7.90749
H         -0.43919       -4.55360       -7.47851
H          0.77147       -3.47778       -8.30350
H          0.31890       -1.54370       -4.43190
H         -0.14400        0.11500       -2.94440
H          1.30720        0.75930       -2.12220
H          0.15010       -0.33510       -1.23870
