
 OpenBabel02012214143D

 30 30  0  0  0  0  0  0  0  0999 V2000
    2.7304    0.5392    1.1015 C   0  0  0  0  0  0  0  0  0  0  0  0
    2.3743   -0.1284   -0.0551 O   0  0  0  0  0  0  0  0  0  0  0  0
    2.9688   -1.2483   -0.5440 C   0  0  0  0  0  0  0  0  0  0  0  0
    3.8897   -1.7646    0.0757 O   0  0  0  0  0  0  0  0  0  0  0  0
    2.5284   -1.8493   -1.8463 C   0  0  0  0  0  0  0  0  0  0  0  0
    3.2159   -2.9839   -2.3196 C   0  0  0  0  0  0  0  0  0  0  0  0
    2.8849   -3.6046   -3.5345 C   0  0  0  0  0  0  0  0  0  0  0  0
    3.6892   -4.8107   -3.9550 C   0  0  0  0  0  0  0  0  0  0  0  0
    1.8248   -3.0798   -4.3211 C   0  0  0  0  0  0  0  0  0  0  0  0
    1.4069   -3.6572   -5.6389 C   0  0  0  0  0  0  0  0  0  0  0  0
    1.9511   -4.6543   -6.0915 O   0  0  0  0  0  0  0  0  0  0  0  0
    0.4209   -3.0509   -6.3520 O   0  0  0  0  0  0  0  0  0  0  0  0
   -0.0127   -3.4800   -7.5886 C   0  0  0  0  0  0  0  0  0  0  0  0
    1.1324   -1.9528   -3.8450 C   0  0  0  0  0  0  0  0  0  0  0  0
    1.4615   -1.3332   -2.6280 C   0  0  0  0  0  0  0  0  0  0  0  0
    0.6507   -0.1313   -2.2085 C   0  0  0  0  0  0  0  0  0  0  0  0
    3.0124    1.5813    0.8448 H   0  0  0  0  0  0  0  0  0  0  0  0
    3.5858    0.0629    1.6262 H   0  0  0  0  0  0  0  0  0  0  0  0
    1.8610    0.5643    1.7900 H   0  0  0  0  0  0  0  0  0  0  0  0
    4.0314   -3.3926   -1.7350 H   0  0  0  0  0  0  0  0  0  0  0  0
    4.4759   -5.0677   -3.2141 H   0  0  0  0  0  0  0  0  0  0  0  0
    4.1973   -4.6086   -4.9211 H   0  0  0  0  0  0  0  0  0  0  0  0
    3.0242   -5.6942   -4.0516 H   0  0  0  0  0  0  0  0  0  0  0  0
   -0.8103   -2.7996   -7.9512 H   0  0  0  0  0  0  0  0  0  0  0  0
   -0.4239   -4.5093   -7.5145 H   0  0  0  0  0  0  0  0  0  0  0  0
    0.8280   -3.4628   -8.3153 H   0  0  0  0  0  0  0  0  0  0  0  0
    0.3189   -1.5437   -4.4319 H   0  0  0  0  0  0  0  0  0  0  0  0
   -0.1440    0.1150   -2.9444 H   0  0  0  0  0  0  0  0  0  0  0  0
    1.3072    0.7593   -2.1222 H   0  0  0  0  0  0  0  0  0  0  0  0
    0.1501   -0.3351   -1.2387 H   0  0  0  0  0  0  0  0  0  0  0  0
  1  2  1  0  0  0  0
  1 17  1  0  0  0  0
  1 18  1  0  0  0  0
  1 19  1  0  0  0  0
  2  3  1  0  0  0  0
  3  4  2  0  0  0  0
  3  5  1  0  0  0  0
  5  6  1  0  0  0  0
  5 15  2  0  0  0  0
  6  7  2  0  0  0  0
  6 20  1  0  0  0  0
  7  8  1  0  0  0  0
  7  9  1  0  0  0  0
  8 21  1  0  0  0  0
  8 22  1  0  0  0  0
  8 23  1  0  0  0  0
  9 10  1  0  0  0  0
  9 14  2  0  0  0  0
 10 11  2  0  0  0  0
 10 12  1  0  0  0  0
 12 13  1  0  0  0  0
 13 24  1  0  0  0  0
 13 25  1  0  0  0  0
 13 26  1  0  0  0  0
 14 15  1  0  0  0  0
 14 27  1  0  0  0  0
 15 16  1  0  0  0  0
 16 28  1  0  0  0  0
 16 29  1  0  0  0  0
 16 30  1  0  0  0  0
M  END
