
  xtb     02012214143D
 xtb: 6.4.1 (23d549d)
 30 30  0     0  0            999 V2000
    3.7088   -1.7363    1.6336 c   0  0  0  0  0  0  0  0  0  0  0  0
    3.3057   -2.2445    0.3727 o   0  0  0  0  0  0  0  0  0  0  0  0
    2.5723   -1.4090   -0.3874 c   0  0  0  0  0  0  0  0  0  0  0  0
    2.2746   -0.3002   -0.0152 o   0  0  0  0  0  0  0  0  0  0  0  0
    2.1943   -2.0220   -1.6846 c   0  0  0  0  0  0  0  0  0  0  0  0
    2.7750   -3.2331   -2.0557 c   0  0  0  0  0  0  0  0  0  0  0  0
    2.4802   -3.8784   -3.2469 c   0  0  0  0  0  0  0  0  0  0  0  0
    3.1646   -5.1711   -3.5566 c   0  0  0  0  0  0  0  0  0  0  0  0
    1.5507   -3.2646   -4.0990 c   0  0  0  0  0  0  0  0  0  0  0  0
    1.0969   -3.7935   -5.4125 c   0  0  0  0  0  0  0  0  0  0  0  0
    0.4007   -3.1649   -6.1744 o   0  0  0  0  0  0  0  0  0  0  0  0
    1.5107   -5.0384   -5.6869 o   0  0  0  0  0  0  0  0  0  0  0  0
    1.0745   -5.5708   -6.9282 c   0  0  0  0  0  0  0  0  0  0  0  0
    0.9772   -2.0488   -3.7312 c   0  0  0  0  0  0  0  0  0  0  0  0
    1.2726   -1.4021   -2.5424 c   0  0  0  0  0  0  0  0  0  0  0  0
    0.6150   -0.1010   -2.2239 c   0  0  0  0  0  0  0  0  0  0  0  0
    4.1615   -2.5685    2.1669 h   0  0  0  0  0  0  0  0  0  0  0  0
    2.8466   -1.3503    2.1815 h   0  0  0  0  0  0  0  0  0  0  0  0
    4.4311   -0.9273    1.5039 h   0  0  0  0  0  0  0  0  0  0  0  0
    3.4875   -3.6827   -1.3813 h   0  0  0  0  0  0  0  0  0  0  0  0
    3.8899   -5.4081   -2.7820 h   0  0  0  0  0  0  0  0  0  0  0  0
    3.6764   -5.1166   -4.5150 h   0  0  0  0  0  0  0  0  0  0  0  0
    2.4404   -5.9808   -3.6199 h   0  0  0  0  0  0  0  0  0  0  0  0
    1.5176   -6.5604   -7.0066 h   0  0  0  0  0  0  0  0  0  0  0  0
    1.4039   -4.9338   -7.7521 h   0  0  0  0  0  0  0  0  0  0  0  0
   -0.0157   -5.6346   -6.9523 h   0  0  0  0  0  0  0  0  0  0  0  0
    0.2724   -1.6072   -4.4209 h   0  0  0  0  0  0  0  0  0  0  0  0
   -0.1136    0.1538   -2.9891 h   0  0  0  0  0  0  0  0  0  0  0  0
    1.3591    0.6908   -2.1595 h   0  0  0  0  0  0  0  0  0  0  0  0
    0.1217   -0.1457   -1.2552 h   0  0  0  0  0  0  0  0  0  0  0  0
  1  2  1  0  0  0  0
  2  3  1  0  0  0  0
  3  4  2  0  0  0  0
  3  5  1  0  0  0  0
  5  6  4  0  0  0  0
  6  7  4  0  0  0  0
  7  8  1  0  0  0  0
  7  9  4  0  0  0  0
  9 10  1  0  0  0  0
 10 11  2  0  0  0  0
 10 12  1  0  0  0  0
 12 13  1  0  0  0  0
  9 14  4  0  0  0  0
  5 15  4  0  0  0  0
 14 15  4  0  0  0  0
 15 16  1  0  0  0  0
  1 17  1  0  0  0  0
  1 18  1  0  0  0  0
  1 19  1  0  0  0  0
  6 20  1  0  0  0  0
  8 21  1  0  0  0  0
  8 22  1  0  0  0  0
  8 23  1  0  0  0  0
 13 24  1  0  0  0  0
 13 25  1  0  0  0  0
 13 26  1  0  0  0  0
 14 27  1  0  0  0  0
 16 28  1  0  0  0  0
 16 29  1  0  0  0  0
 16 30  1  0  0  0  0
M  END
