
  xtb     02032211363D
 xtb: 6.4.1 (23d549d)
 32 32  0     0  0            999 V2000
    0.7830    3.6550    0.5405 C   0  0  0  0  0  0  0  0  0  0  0  0
    1.2825    2.5775   -0.0508 C   0  0  0  0  0  0  0  0  0  0  0  0
    0.6500    1.2623   -0.0247 C   0  0  0  0  0  0  0  0  0  0  0  0
   -0.7381    1.1582   -0.0341 C   0  0  0  0  0  0  0  0  0  0  0  0
   -1.3934   -0.0665   -0.0293 C   0  0  0  0  0  0  0  0  0  0  0  0
   -2.8775   -0.0856    0.0154 C   0  0  0  0  0  0  0  0  0  0  0  0
   -3.5590   -1.0079    0.3908 O   0  0  0  0  0  0  0  0  0  0  0  0
   -3.4057    1.0748   -0.4097 O   0  0  0  0  0  0  0  0  0  0  0  0
   -4.8221    1.1536   -0.3816 C   0  0  0  0  0  0  0  0  0  0  0  0
   -0.6497   -1.2614   -0.0250 C   0  0  0  0  0  0  0  0  0  0  0  0
   -1.2817   -2.5768   -0.0516 C   0  0  0  0  0  0  0  0  0  0  0  0
   -0.7838   -3.6529    0.5437 C   0  0  0  0  0  0  0  0  0  0  0  0
    0.7383   -1.1573   -0.0338 C   0  0  0  0  0  0  0  0  0  0  0  0
    1.3937    0.0673   -0.0287 C   0  0  0  0  0  0  0  0  0  0  0  0
    2.8778    0.0854    0.0162 C   0  0  0  0  0  0  0  0  0  0  0  0
    3.5602    1.0059    0.3941 O   0  0  0  0  0  0  0  0  0  0  0  0
    3.4047   -1.0747   -0.4118 O   0  0  0  0  0  0  0  0  0  0  0  0
    4.8210   -1.1560   -0.3832 C   0  0  0  0  0  0  0  0  0  0  0  0
    1.2851    4.6054    0.4902 H   0  0  0  0  0  0  0  0  0  0  0  0
   -0.1252    3.6256    1.1197 H   0  0  0  0  0  0  0  0  0  0  0  0
    2.2282    2.6413   -0.5687 H   0  0  0  0  0  0  0  0  0  0  0  0
   -1.3293    2.0599   -0.0542 H   0  0  0  0  0  0  0  0  0  0  0  0
   -5.0781    2.1490   -0.7352 H   0  0  0  0  0  0  0  0  0  0  0  0
   -5.1914    0.9982    0.6344 H   0  0  0  0  0  0  0  0  0  0  0  0
   -5.2583    0.3920   -1.0316 H   0  0  0  0  0  0  0  0  0  0  0  0
   -2.2250   -2.6421   -0.5735 H   0  0  0  0  0  0  0  0  0  0  0  0
    0.1220   -3.6215    1.1266 H   0  0  0  0  0  0  0  0  0  0  0  0
   -1.2848   -4.6038    0.4930 H   0  0  0  0  0  0  0  0  0  0  0  0
    1.3294   -2.0591   -0.0535 H   0  0  0  0  0  0  0  0  0  0  0  0
    5.0750   -2.1532   -0.7331 H   0  0  0  0  0  0  0  0  0  0  0  0
    5.1904   -0.9975    0.6322 H   0  0  0  0  0  0  0  0  0  0  0  0
    5.2587   -0.3979   -1.0361 H   0  0  0  0  0  0  0  0  0  0  0  0
  1  2  2  0  0  0  0
  2  3  1  0  0  0  0
  3  4  4  0  0  0  0
  4  5  4  0  0  0  0
  5  6  1  0  0  0  0
  6  7  2  0  0  0  0
  6  8  1  0  0  0  0
  8  9  1  0  0  0  0
  5 10  4  0  0  0  0
 10 11  1  0  0  0  0
 11 12  2  0  0  0  0
 10 13  4  0  0  0  0
  3 14  4  0  0  0  0
 13 14  4  0  0  0  0
 14 15  1  0  0  0  0
 15 16  2  0  0  0  0
 15 17  1  0  0  0  0
 17 18  1  0  0  0  0
  1 19  1  0  0  0  0
  1 20  1  0  0  0  0
  2 21  1  0  0  0  0
  4 22  1  0  0  0  0
  9 23  1  0  0  0  0
  9 24  1  0  0  0  0
  9 25  1  0  0  0  0
 11 26  1  0  0  0  0
 12 27  1  0  0  0  0
 12 28  1  0  0  0  0
 13 29  1  0  0  0  0
 18 30  1  0  0  0  0
 18 31  1  0  0  0  0
 18 32  1  0  0  0  0
M  END
