
  xtb     02032211353D
 xtb: 6.4.1 (23d549d)
 31 32  0     0  0            999 V2000
   -0.8322    3.6944    0.0408 C   0  0  0  0  0  0  0  0  0  0  0  0
   -1.8056    2.7966    0.1274 C   0  0  0  0  0  0  0  0  0  0  0  0
   -1.6463    1.3458    0.1520 C   0  0  0  0  0  0  0  0  0  0  0  0
   -2.7672    0.5420   -0.0370 C   0  0  0  0  0  0  0  0  0  0  0  0
   -2.6765   -0.8478   -0.0231 C   0  0  0  0  0  0  0  0  0  0  0  0
   -3.8305   -1.7200   -0.2153 C   0  0  0  0  0  0  0  0  0  0  0  0
   -5.0524   -1.3503   -0.5779 C   0  0  0  0  0  0  0  0  0  0  0  0
   -1.4283   -1.4313    0.1838 C   0  0  0  0  0  0  0  0  0  0  0  0
   -0.3011   -0.6413    0.3690 C   0  0  0  0  0  0  0  0  0  0  0  0
    0.8769   -1.2922    0.6339 O   0  0  0  0  0  0  0  0  0  0  0  0
    2.0693   -0.7590    0.2210 C   0  0  0  0  0  0  0  0  0  0  0  0
    2.2107   -0.0374   -0.9600 C   0  0  0  0  0  0  0  0  0  0  0  0
    3.4604    0.4165   -1.3399 C   0  0  0  0  0  0  0  0  0  0  0  0
    4.5728    0.1517   -0.5595 C   0  0  0  0  0  0  0  0  0  0  0  0
    4.4327   -0.5823    0.6067 C   0  0  0  0  0  0  0  0  0  0  0  0
    3.1886   -1.0368    0.9998 C   0  0  0  0  0  0  0  0  0  0  0  0
   -0.4086    0.7419    0.3662 C   0  0  0  0  0  0  0  0  0  0  0  0
   -1.0438    4.7497    0.0209 H   0  0  0  0  0  0  0  0  0  0  0  0
    0.2079    3.4226   -0.0217 H   0  0  0  0  0  0  0  0  0  0  0  0
   -2.8332    3.1373    0.1635 H   0  0  0  0  0  0  0  0  0  0  0  0
   -3.7249    1.0146   -0.1909 H   0  0  0  0  0  0  0  0  0  0  0  0
   -3.6291   -2.7710   -0.0478 H   0  0  0  0  0  0  0  0  0  0  0  0
   -5.3183   -0.3260   -0.7753 H   0  0  0  0  0  0  0  0  0  0  0  0
   -5.8424   -2.0717   -0.6983 H   0  0  0  0  0  0  0  0  0  0  0  0
   -1.3178   -2.5048    0.2068 H   0  0  0  0  0  0  0  0  0  0  0  0
    1.3466    0.1575   -1.5788 H   0  0  0  0  0  0  0  0  0  0  0  0
    3.5633    0.9768   -2.2575 H   0  0  0  0  0  0  0  0  0  0  0  0
    5.5449    0.5107   -0.8619 H   0  0  0  0  0  0  0  0  0  0  0  0
    5.2967   -0.7993    1.2171 H   0  0  0  0  0  0  0  0  0  0  0  0
    3.0622   -1.6110    1.9044 H   0  0  0  0  0  0  0  0  0  0  0  0
    0.4678    1.3426    0.5543 H   0  0  0  0  0  0  0  0  0  0  0  0
  1  2  2  0  0  0  0
  2  3  1  0  0  0  0
  3  4  4  0  0  0  0
  4  5  4  0  0  0  0
  5  6  1  0  0  0  0
  6  7  2  0  0  0  0
  5  8  4  0  0  0  0
  8  9  4  0  0  0  0
  9 10  1  0  0  0  0
 10 11  1  0  0  0  0
 11 12  4  0  0  0  0
 12 13  4  0  0  0  0
 13 14  4  0  0  0  0
 14 15  4  0  0  0  0
 11 16  4  0  0  0  0
 15 16  4  0  0  0  0
  3 17  4  0  0  0  0
  9 17  4  0  0  0  0
  1 18  1  0  0  0  0
  1 19  1  0  0  0  0
  2 20  1  0  0  0  0
  4 21  1  0  0  0  0
  6 22  1  0  0  0  0
  7 23  1  0  0  0  0
  7 24  1  0  0  0  0
  8 25  1  0  0  0  0
 12 26  1  0  0  0  0
 13 27  1  0  0  0  0
 14 28  1  0  0  0  0
 15 29  1  0  0  0  0
 16 30  1  0  0  0  0
 17 31  1  0  0  0  0
M  END
