
  xtb     02032211343D
 xtb: 6.4.1 (23d549d)
 16 16  0     0  0            999 V2000
    3.4979   -1.7805   -0.0005 C   0  0  0  0  0  0  0  0  0  0  0  0
    3.3091   -0.4675    0.0002 C   0  0  0  0  0  0  0  0  0  0  0  0
    2.0092    0.1684    0.0001 C   0  0  0  0  0  0  0  0  0  0  0  0
    0.7144   -0.4179   -0.0001 C   0  0  0  0  0  0  0  0  0  0  0  0
   -0.1349    0.6596   -0.0001 C   0  0  0  0  0  0  0  0  0  0  0  0
   -1.5678    0.7964   -0.0004 C   0  0  0  0  0  0  0  0  0  0  0  0
   -2.4216   -0.2186   -0.0001 C   0  0  0  0  0  0  0  0  0  0  0  0
   -2.1059   -1.5051    0.0006 F   0  0  0  0  0  0  0  0  0  0  0  0
   -3.7381   -0.0812   -0.0002 F   0  0  0  0  0  0  0  0  0  0  0  0
    0.5966    1.7933    0.0000 O   0  0  0  0  0  0  0  0  0  0  0  0
    1.9041    1.4800    0.0003 N   0  0  0  0  0  0  0  0  0  0  0  0
    4.4868   -2.2046   -0.0004 H   0  0  0  0  0  0  0  0  0  0  0  0
    2.6782   -2.4790   -0.0013 H   0  0  0  0  0  0  0  0  0  0  0  0
    4.1401    0.2228    0.0007 H   0  0  0  0  0  0  0  0  0  0  0  0
    0.4561   -1.4543   -0.0000 H   0  0  0  0  0  0  0  0  0  0  0  0
   -1.9612    1.8002   -0.0008 H   0  0  0  0  0  0  0  0  0  0  0  0
  1  2  2  0  0  0  0
  2  3  1  0  0  0  0
  3  4  4  0  0  0  0
  4  5  2  0  0  0  0
  5  6  1  0  0  0  0
  6  7  2  0  0  0  0
  7  8  1  0  0  0  0
  7  9  1  0  0  0  0
  5 10  1  0  0  0  0
  3 11  2  0  0  0  0
 10 11  1  0  0  0  0
  1 12  1  0  0  0  0
  1 13  1  0  0  0  0
  2 14  1  0  0  0  0
  4 15  1  0  0  0  0
  6 16  1  0  0  0  0
M  END
