
  xtb     02032211293D
 xtb: 6.4.1 (23d549d)
 24 24  0     0  0            999 V2000
    1.8312    0.9321   -0.6441 c   0  0  0  0  0  0  0  0  0  0  0  0
    2.1227   -0.1810    0.0151 c   0  0  0  0  0  0  0  0  0  0  0  0
    3.0026   -0.2865    1.1667 c   0  0  0  0  0  0  0  0  0  0  0  0
    2.7496   -1.1668    2.2328 c   0  0  0  0  0  0  0  0  0  0  0  0
    3.7098   -0.9460    3.2031 c   0  0  0  0  0  0  0  0  0  0  0  0
    3.9472   -1.5418    4.5052 c   0  0  0  0  0  0  0  0  0  0  0  0
    4.8567   -1.2160    5.2391 o   0  0  0  0  0  0  0  0  0  0  0  0
    3.0447   -2.4904    4.8103 o   0  0  0  0  0  0  0  0  0  0  0  0
    3.2092   -3.1178    6.0715 c   0  0  0  0  0  0  0  0  0  0  0  0
    4.5355    0.0369    2.7428 n   0  0  0  0  0  0  0  0  0  0  0  0
    4.1487    0.4484    1.5093 c   0  0  0  0  0  0  0  0  0  0  0  0
    4.9589    1.4175    0.8089 c   0  0  0  0  0  0  0  0  0  0  0  0
    5.0238    1.5892   -0.5071 c   0  0  0  0  0  0  0  0  0  0  0  0
    1.1330    0.9335   -1.4638 h   0  0  0  0  0  0  0  0  0  0  0  0
    2.2707    1.8800   -0.3846 h   0  0  0  0  0  0  0  0  0  0  0  0
    1.6243   -1.1061   -0.2488 h   0  0  0  0  0  0  0  0  0  0  0  0
    1.9440   -1.8701    2.2990 h   0  0  0  0  0  0  0  0  0  0  0  0
    2.2986   -3.6830    6.2524 h   0  0  0  0  0  0  0  0  0  0  0  0
    3.3614   -2.3692    6.8522 h   0  0  0  0  0  0  0  0  0  0  0  0
    4.0736   -3.7854    6.0530 h   0  0  0  0  0  0  0  0  0  0  0  0
    5.3412    0.3619    3.2549 h   0  0  0  0  0  0  0  0  0  0  0  0
    5.6014    2.0068    1.4543 h   0  0  0  0  0  0  0  0  0  0  0  0
    4.4309    1.0035   -1.1868 h   0  0  0  0  0  0  0  0  0  0  0  0
    5.6819    2.3214   -0.9419 h   0  0  0  0  0  0  0  0  0  0  0  0
  1  2  2  0  0  0  0
  2  3  1  0  0  0  0
  3  4  4  0  0  0  0
  4  5  4  0  0  0  0
  5  6  1  0  0  0  0
  6  7  2  0  0  0  0
  6  8  1  0  0  0  0
  8  9  1  0  0  0  0
  5 10  1  0  0  0  0
  3 11  4  0  0  0  0
 10 11  4  0  0  0  0
 11 12  1  0  0  0  0
 12 13  2  0  0  0  0
  1 14  1  0  0  0  0
  1 15  1  0  0  0  0
  2 16  1  0  0  0  0
  4 17  1  0  0  0  0
  9 18  1  0  0  0  0
  9 19  1  0  0  0  0
  9 20  1  0  0  0  0
 10 21  1  0  0  0  0
 12 22  1  0  0  0  0
 13 23  1  0  0  0  0
 13 24  1  0  0  0  0
M  END
