
 OpenBabel02032211233D

 49 51  0  0  0  0  0  0  0  0999 V2000
    1.0452   -0.0990    0.3260 C   0  0  0  0  0  0  0  0  0  0  0  0
    2.3435   -0.0549    0.0108 C   0  0  0  0  0  0  0  0  0  0  0  0
    3.1478    1.1911   -0.0178 C   0  0  0  0  0  0  0  0  0  0  0  0
    2.7954    2.3448    0.7090 C   0  0  0  0  0  0  0  0  0  0  0  0
    3.6178    3.4763    0.6705 C   0  0  0  0  0  0  0  0  0  0  0  0
    4.7728    3.4990   -0.1284 C   0  0  0  0  0  0  0  0  0  0  0  0
    5.0885    2.3621   -0.8956 C   0  0  0  0  0  0  0  0  0  0  0  0
    4.3040    1.2129   -0.8015 C   0  0  0  0  0  0  0  0  0  0  0  0
    6.5413    2.3048   -1.9405 S   0  0  0  0  0  0  0  0  0  0  0  0
    6.5788    4.0502   -2.3624 C   0  0  0  0  0  0  0  0  0  0  0  0
    7.0772    4.4225   -3.6143 C   0  0  0  0  0  0  0  0  0  0  0  0
    7.2219    5.7733   -3.9634 C   0  0  0  0  0  0  0  0  0  0  0  0
    7.7656    6.1022   -5.3059 C   0  0  0  0  0  0  0  0  0  0  0  0
    8.2642    7.2954   -5.6470 C   0  0  0  0  0  0  0  0  0  0  0  0
    6.8557    6.7597   -3.0251 C   0  0  0  0  0  0  0  0  0  0  0  0
    6.3444    6.3901   -1.7778 C   0  0  0  0  0  0  0  0  0  0  0  0
    6.2019    5.0321   -1.4289 C   0  0  0  0  0  0  0  0  0  0  0  0
    5.6184    4.6591   -0.1845 N   0  0  0  0  0  0  0  0  0  0  0  0
    5.9326    5.3909    1.0467 C   0  0  0  0  0  0  0  0  0  0  0  0
    6.5265    4.3933    2.0640 C   0  0  0  0  0  0  0  0  0  0  0  0
    7.1006    5.0585    3.3156 C   0  0  0  0  0  0  0  0  0  0  0  0
    7.6005    3.9778    4.2896 C   0  0  0  0  0  0  0  0  0  0  0  0
    8.1979    4.5878    5.5603 C   0  0  0  0  0  0  0  0  0  0  0  0
    8.6608    3.4940    6.5210 C   0  0  0  0  0  0  0  0  0  0  0  0
    0.5224   -1.0494    0.3061 H   0  0  0  0  0  0  0  0  0  0  0  0
    0.4810    0.7958    0.5601 H   0  0  0  0  0  0  0  0  0  0  0  0
    2.8286   -0.9867   -0.2718 H   0  0  0  0  0  0  0  0  0  0  0  0
    1.9110    2.3678    1.3309 H   0  0  0  0  0  0  0  0  0  0  0  0
    3.3322    4.3420    1.2536 H   0  0  0  0  0  0  0  0  0  0  0  0
    4.5879    0.3316   -1.3680 H   0  0  0  0  0  0  0  0  0  0  0  0
    7.3786    3.6514   -4.3127 H   0  0  0  0  0  0  0  0  0  0  0  0
    7.7807    5.3167   -6.0590 H   0  0  0  0  0  0  0  0  0  0  0  0
    8.3314    8.1180   -4.9455 H   0  0  0  0  0  0  0  0  0  0  0  0
    8.6536    7.4459   -6.6482 H   0  0  0  0  0  0  0  0  0  0  0  0
    6.9234    7.8111   -3.2621 H   0  0  0  0  0  0  0  0  0  0  0  0
    6.0323    7.1711   -1.0976 H   0  0  0  0  0  0  0  0  0  0  0  0
    5.0338    5.8885    1.4671 H   0  0  0  0  0  0  0  0  0  0  0  0
    6.6989    6.1666    0.8412 H   0  0  0  0  0  0  0  0  0  0  0  0
    7.3435    3.8193    1.5723 H   0  0  0  0  0  0  0  0  0  0  0  0
    5.7343    3.6781    2.3703 H   0  0  0  0  0  0  0  0  0  0  0  0
    6.3145    5.6688    3.8100 H   0  0  0  0  0  0  0  0  0  0  0  0
    7.9455    5.7189    3.0219 H   0  0  0  0  0  0  0  0  0  0  0  0
    8.3737    3.3544    3.7878 H   0  0  0  0  0  0  0  0  0  0  0  0
    6.7457    3.3231    4.5713 H   0  0  0  0  0  0  0  0  0  0  0  0
    7.4329    5.2130    6.0702 H   0  0  0  0  0  0  0  0  0  0  0  0
    9.0670    5.2286    5.2948 H   0  0  0  0  0  0  0  0  0  0  0  0
    7.8028    2.8516    6.8156 H   0  0  0  0  0  0  0  0  0  0  0  0
    9.0893    3.9541    7.4356 H   0  0  0  0  0  0  0  0  0  0  0  0
    9.4387    2.8613    6.0421 H   0  0  0  0  0  0  0  0  0  0  0  0
  1  2  2  0  0  0  0
  1 25  1  0  0  0  0
  1 26  1  0  0  0  0
  2  3  1  0  0  0  0
  2 27  1  0  0  0  0
  3  4  1  0  0  0  0
  3  8  2  0  0  0  0
  4  5  2  0  0  0  0
  4 28  1  0  0  0  0
  5  6  1  0  0  0  0
  5 29  1  0  0  0  0
  6  7  2  0  0  0  0
  6 18  1  0  0  0  0
  7  8  1  0  0  0  0
  7  9  1  0  0  0  0
  8 30  1  0  0  0  0
  9 10  1  0  0  0  0
 10 11  1  0  0  0  0
 10 17  2  0  0  0  0
 11 12  2  0  0  0  0
 11 31  1  0  0  0  0
 12 13  1  0  0  0  0
 12 15  1  0  0  0  0
 13 14  2  0  0  0  0
 13 32  1  0  0  0  0
 14 33  1  0  0  0  0
 14 34  1  0  0  0  0
 15 16  2  0  0  0  0
 15 35  1  0  0  0  0
 16 17  1  0  0  0  0
 16 36  1  0  0  0  0
 17 18  1  0  0  0  0
 18 19  1  0  0  0  0
 19 20  1  0  0  0  0
 19 37  1  0  0  0  0
 19 38  1  0  0  0  0
 20 21  1  0  0  0  0
 20 39  1  0  0  0  0
 20 40  1  0  0  0  0
 21 22  1  0  0  0  0
 21 41  1  0  0  0  0
 21 42  1  0  0  0  0
 22 23  1  0  0  0  0
 22 43  1  0  0  0  0
 22 44  1  0  0  0  0
 23 24  1  0  0  0  0
 23 45  1  0  0  0  0
 23 46  1  0  0  0  0
 24 47  1  0  0  0  0
 24 48  1  0  0  0  0
 24 49  1  0  0  0  0
M  END
