 xtb: 6.5.0 (unknown)
          08122213083D

 29  0  0     0  0            999 V2000
    0.4768    4.5643    0.0050 C   0  0  0  0  0  0  0  0  0  0  0  0
   -0.5471    3.7200   -0.0091 C   0  0  0  0  0  0  0  0  0  0  0  0
   -0.4729    2.2626    0.0207 C   0  0  0  0  0  0  0  0  0  0  0  0
   -1.6567    1.5291   -0.0316 C   0  0  0  0  0  0  0  0  0  0  0  0
   -1.6664    0.1341   -0.0094 C   0  0  0  0  0  0  0  0  0  0  0  0
   -2.9554   -0.5389   -0.0691 C   0  0  0  0  0  0  0  0  0  0  0  0
   -3.2056   -1.8400   -0.0565 C   0  0  0  0  0  0  0  0  0  0  0  0
   -2.3417   -2.8403    0.0133 F   0  0  0  0  0  0  0  0  0  0  0  0
   -4.4393   -2.3375   -0.1165 F   0  0  0  0  0  0  0  0  0  0  0  0
   -0.4494   -0.5392    0.0681 C   0  0  0  0  0  0  0  0  0  0  0  0
    0.7402    0.1795    0.1235 C   0  0  0  0  0  0  0  0  0  0  0  0
    2.0110   -0.5891    0.2051 C   0  0  0  0  0  0  0  0  0  0  0  0
    2.0717   -1.7936    0.1996 O   0  0  0  0  0  0  0  0  0  0  0  0
    3.0830    0.2091    0.2972 O   0  0  0  0  0  0  0  0  0  0  0  0
    4.3572   -0.4308    0.3644 C   0  0  0  0  0  0  0  0  0  0  0  0
    4.8680   -0.8016   -1.0205 C   0  0  0  0  0  0  0  0  0  0  0  0
    0.7330    1.5678    0.1000 C   0  0  0  0  0  0  0  0  0  0  0  0
    0.3218    5.6291   -0.0208 H   0  0  0  0  0  0  0  0  0  0  0  0
    1.5020    4.2390    0.0413 H   0  0  0  0  0  0  0  0  0  0  0  0
   -1.5539    4.1173   -0.0489 H   0  0  0  0  0  0  0  0  0  0  0  0
   -2.5975    2.0584   -0.0923 H   0  0  0  0  0  0  0  0  0  0  0  0
   -3.8284    0.0949   -0.1314 H   0  0  0  0  0  0  0  0  0  0  0  0
   -0.3923   -1.6153    0.0881 H   0  0  0  0  0  0  0  0  0  0  0  0
    4.2712   -1.3271    0.9874 H   0  0  0  0  0  0  0  0  0  0  0  0
    5.0142    0.2967    0.8460 H   0  0  0  0  0  0  0  0  0  0  0  0
    4.2071   -1.5360   -1.4741 H   0  0  0  0  0  0  0  0  0  0  0  0
    5.8640   -1.2271   -0.9392 H   0  0  0  0  0  0  0  0  0  0  0  0
    4.9075    0.0796   -1.6565 H   0  0  0  0  0  0  0  0  0  0  0  0
    1.6709    2.0953    0.1451 H   0  0  0  0  0  0  0  0  0  0  0  0
M  END
