40

C          2.65891       -0.63791       -1.23208
C          2.21752        0.10737       -0.21000
C          3.08832        0.77657        0.79669
C          3.52009        2.08236        0.53754
C          4.34033        2.76225        1.44068
C          4.76860        2.15710        2.64570
C          5.67060        2.88650        3.61950
C          6.12220        4.19980        3.36700
C          6.96320        4.86860        4.26020
C          7.40900        4.25900        5.45210
C          8.34020        4.97550        6.40730
C          8.33146        6.38475        6.53130
C          9.20084        7.04237        7.40511
C         10.11714        6.32739        8.18534
C         11.02459        7.09034        9.08736
C         10.72861        8.26573        9.65816
C         10.13804        4.92695        8.07662
C          9.26564        4.26497        7.20800
C          6.95510        2.94740        5.70630
C          6.10610        2.28230        4.81790
C          4.32375        0.83713        2.89581
C          3.49884        0.16155        1.99100
H          1.94243       -1.08399       -1.91472
H          3.70814       -0.82316       -1.41814
H          1.14165        0.22922       -0.11552
H          3.22385        2.58392       -0.37640
H          4.63644        3.75834        1.15807
H          5.83560        4.74570        2.48390
H          7.26360        5.86350        3.97730
H          7.65490        7.00862        5.97201
H          9.15695        8.12335        7.46808
H         12.00060        6.66585        9.30744
H          9.78492        8.77324        9.50990
H         11.45791        8.74303       10.30483
H         10.82429        4.32462        8.65215
H          9.35285        3.19208        7.17203
H          7.23420        2.40560        6.59440
H          5.82040        1.28090        5.09270
H          4.58933        0.29965        3.79017
H          3.19407       -0.84274        2.24456
40

C          2.65891       -0.63791       -1.23208
C          2.21752        0.10737       -0.21000
C          3.08832        0.77657        0.79669
C          3.52009        2.08236        0.53754
C          4.34033        2.76225        1.44068
C          4.76860        2.15710        2.64570
C          5.67060        2.88650        3.61950
C          6.12220        4.19980        3.36700
C          6.96320        4.86860        4.26020
C          7.40900        4.25900        5.45210
C          8.34020        4.97550        6.40730
C          8.80287        6.28653        6.14542
C          9.67157        6.93913        7.02364
C         10.11995        6.31360        8.19293
C         11.05535        7.06009        9.08007
C         10.68301        7.85574       10.09162
C          9.66875        5.01240        8.47002
C          8.79478        4.35850        7.59687
C          6.95510        2.94740        5.70630
C          6.10610        2.28230        4.81790
C          4.32375        0.83713        2.89581
C          3.49884        0.16155        1.99100
H          1.94243       -1.08399       -1.91472
H          3.70814       -0.82316       -1.41814
H          1.14165        0.22922       -0.11552
H          3.22385        2.58392       -0.37640
H          4.63644        3.75834        1.15807
H          5.83560        4.74570        2.48390
H          7.26360        5.86350        3.97730
H          8.50231        6.84037        5.27209
H          9.99820        7.94392        6.78256
H         12.12221        6.95286        8.90247
H          9.64873        8.02871       10.35705
H         11.44258        8.35537       10.68434
H          9.98276        4.48085        9.35535
H          8.50584        3.35838        7.87302
H          7.23420        2.40560        6.59440
H          5.82040        1.28090        5.09270
H          4.58933        0.29965        3.79017
H          3.19407       -0.84274        2.24456
40

C          2.57265       -1.06467       -0.83252
C          2.24132        0.07201       -0.20555
C          3.08716        0.76704        0.80491
C          3.99552        1.73358        0.35841
C          4.81835        2.41769        1.25598
C          4.76860        2.15710        2.64570
C          5.67060        2.88650        3.61950
C          6.12220        4.19980        3.36700
C          6.96320        4.86860        4.26020
C          7.40900        4.25900        5.45210
C          8.34020        4.97550        6.40730
C          8.33146        6.38475        6.53130
C          9.20084        7.04237        7.40511
C         10.11714        6.32739        8.18534
C         11.02459        7.09034        9.08736
C         10.75273        7.40661       10.36055
C         10.13804        4.92695        8.07662
C          9.26564        4.26497        7.20800
C          6.95510        2.94740        5.70630
C          6.10610        2.28230        4.81790
C          3.84493        1.17845        3.08368
C          3.01966        0.49896        2.18213
H          1.88647       -1.49370       -1.55601
H          3.50236       -1.58794       -0.65469
H          1.28188        0.51504       -0.45952
H          4.07456        1.96151       -0.69818
H          5.49680        3.13586        0.82740
H          5.83560        4.74570        2.48390
H          7.26360        5.86350        3.97730
H          7.65490        7.00862        5.97201
H          9.15695        8.12335        7.46808
H         11.98339        7.41463        8.69143
H          9.83087        7.12950       10.85399
H         11.48243        7.96428       10.93885
H         10.82429        4.32462        8.65215
H          9.35285        3.19208        7.17203
H          7.23420        2.40560        6.59440
H          5.82040        1.28090        5.09270
H          3.72872        0.92024        4.12249
H          2.33583       -0.23389        2.58348
40

C          2.57265       -1.06467       -0.83252
C          2.24132        0.07201       -0.20555
C          3.08716        0.76704        0.80491
C          3.99552        1.73358        0.35841
C          4.81835        2.41769        1.25598
C          4.76860        2.15710        2.64570
C          5.67060        2.88650        3.61950
C          6.12220        4.19980        3.36700
C          6.96320        4.86860        4.26020
C          7.40900        4.25900        5.45210
C          8.34020        4.97550        6.40730
C          8.80287        6.28653        6.14542
C          9.67157        6.93913        7.02364
C         10.11995        6.31360        8.19293
C         11.05535        7.06009        9.08007
C         11.50934        8.29892        8.84742
C          9.66875        5.01240        8.47002
C          8.79478        4.35850        7.59687
C          6.95510        2.94740        5.70630
C          6.10610        2.28230        4.81790
C          3.84493        1.17845        3.08368
C          3.01966        0.49896        2.18213
H          1.88647       -1.49370       -1.55601
H          3.50236       -1.58794       -0.65469
H          1.28188        0.51504       -0.45952
H          4.07456        1.96151       -0.69818
H          5.49680        3.13586        0.82740
H          5.83560        4.74570        2.48390
H          7.26360        5.86350        3.97730
H          8.50231        6.84037        5.27209
H          9.99820        7.94392        6.78256
H         11.39637        6.57125        9.98890
H         11.23004        8.87639        7.97644
H         12.18768        8.76034        9.55795
H          9.98276        4.48085        9.35535
H          8.50584        3.35838        7.87302
H          7.23420        2.40560        6.59440
H          5.82040        1.28090        5.09270
H          3.72872        0.92024        4.12249
H          2.33583       -0.23389        2.58348
40

C          2.65891       -0.63791       -1.23208
C          2.21752        0.10737       -0.21000
C          3.08832        0.77657        0.79669
C          3.52009        2.08236        0.53754
C          4.34033        2.76225        1.44068
C          4.76860        2.15710        2.64570
C          5.67060        2.88650        3.61950
C          6.12220        4.19980        3.36700
C          6.96320        4.86860        4.26020
C          7.40900        4.25900        5.45210
C          8.34020        4.97550        6.40730
C          8.80287        6.28653        6.14542
C          9.67157        6.93913        7.02364
C         10.11995        6.31360        8.19293
C         11.05535        7.06009        9.08007
C         11.12942        6.91777       10.41018
C          9.66875        5.01240        8.47002
C          8.79478        4.35850        7.59687
C          6.95510        2.94740        5.70630
C          6.10610        2.28230        4.81790
C          4.32375        0.83713        2.89581
C          3.49884        0.16155        1.99100
H          1.94243       -1.08399       -1.91472
H          3.70814       -0.82316       -1.41814
H          1.14165        0.22922       -0.11552
H          3.22385        2.58392       -0.37640
H          4.63644        3.75834        1.15807
H          5.83560        4.74570        2.48390
H          7.26360        5.86350        3.97730
H          8.50231        6.84037        5.27209
H          9.99820        7.94392        6.78256
H         11.73534        7.77263        8.62059
H         10.50273        6.23399       10.96677
H         11.84877        7.50673       10.97014
H          9.98276        4.48085        9.35535
H          8.50584        3.35838        7.87302
H          7.23420        2.40560        6.59440
H          5.82040        1.28090        5.09270
H          4.58933        0.29965        3.79017
H          3.19407       -0.84274        2.24456
40

C          2.18514       -1.21198       -0.44065
C          2.21752        0.10737       -0.21000
C          3.08832        0.77657        0.79669
C          3.52009        2.08236        0.53754
C          4.34033        2.76225        1.44068
C          4.76860        2.15710        2.64570
C          5.67060        2.88650        3.61950
C          6.12220        4.19980        3.36700
C          6.96320        4.86860        4.26020
C          7.40900        4.25900        5.45210
C          8.34020        4.97550        6.40730
C          8.80287        6.28653        6.14542
C          9.67157        6.93913        7.02364
C         10.11995        6.31360        8.19293
C         11.05535        7.06009        9.08007
C         10.68301        7.85574       10.09162
C          9.66875        5.01240        8.47002
C          8.79478        4.35850        7.59687
C          6.95510        2.94740        5.70630
C          6.10610        2.28230        4.81790
C          4.32375        0.83713        2.89581
C          3.49884        0.16155        1.99100
H          1.51472       -1.60406       -1.19903
H          2.80081       -1.92077        0.09636
H          1.55649        0.72996       -0.80724
H          3.22385        2.58392       -0.37640
H          4.63644        3.75834        1.15807
H          5.83560        4.74570        2.48390
H          7.26360        5.86350        3.97730
H          8.50231        6.84037        5.27209
H          9.99820        7.94392        6.78256
H         12.12221        6.95286        8.90247
H          9.64873        8.02871       10.35705
H         11.44258        8.35537       10.68434
H          9.98276        4.48085        9.35535
H          8.50584        3.35838        7.87302
H          7.23420        2.40560        6.59440
H          5.82040        1.28090        5.09270
H          4.58933        0.29965        3.79017
H          3.19407       -0.84274        2.24456
40

C          2.57265       -1.06467       -0.83252
C          2.24132        0.07201       -0.20555
C          3.08716        0.76704        0.80491
C          3.99552        1.73358        0.35841
C          4.81835        2.41769        1.25598
C          4.76860        2.15710        2.64570
C          5.67060        2.88650        3.61950
C          6.12220        4.19980        3.36700
C          6.96320        4.86860        4.26020
C          7.40900        4.25900        5.45210
C          8.34020        4.97550        6.40730
C          8.33146        6.38475        6.53130
C          9.20084        7.04237        7.40511
C         10.11714        6.32739        8.18534
C         11.02459        7.09034        9.08736
C         11.51049        6.63578       10.25021
C         10.13804        4.92695        8.07662
C          9.26564        4.26497        7.20800
C          6.95510        2.94740        5.70630
C          6.10610        2.28230        4.81790
C          3.84493        1.17845        3.08368
C          3.01966        0.49896        2.18213
H          1.88647       -1.49370       -1.55601
H          3.50236       -1.58794       -0.65469
H          1.28188        0.51504       -0.45952
H          4.07456        1.96151       -0.69818
H          5.49680        3.13586        0.82740
H          5.83560        4.74570        2.48390
H          7.26360        5.86350        3.97730
H          7.65490        7.00862        5.97201
H          9.15695        8.12335        7.46808
H         11.32316        8.09039        8.78406
H         11.28067        5.65448       10.64307
H         12.16944        7.26831       10.83637
H         10.82429        4.32462        8.65215
H          9.35285        3.19208        7.17203
H          7.23420        2.40560        6.59440
H          5.82040        1.28090        5.09270
H          3.72872        0.92024        4.12249
H          2.33583       -0.23389        2.58348
40

C          1.78591       -1.18289       -0.09264
C          2.24132        0.07201       -0.20555
C          3.08716        0.76704        0.80491
C          3.99552        1.73358        0.35841
C          4.81835        2.41769        1.25598
C          4.76860        2.15710        2.64570
C          5.67060        2.88650        3.61950
C          6.12220        4.19980        3.36700
C          6.96320        4.86860        4.26020
C          7.40900        4.25900        5.45210
C          8.34020        4.97550        6.40730
C          8.33146        6.38475        6.53130
C          9.20084        7.04237        7.40511
C         10.11714        6.32739        8.18534
C         11.02459        7.09034        9.08736
C         10.75273        7.40661       10.36055
C         10.13804        4.92695        8.07662
C          9.26564        4.26497        7.20800
C          6.95510        2.94740        5.70630
C          6.10610        2.28230        4.81790
C          3.84493        1.17845        3.08368
C          3.01966        0.49896        2.18213
H          1.17535       -1.60166       -0.88648
H          1.99652       -1.81314        0.76073
H          1.96984        0.61726       -1.10571
H          4.07456        1.96151       -0.69818
H          5.49680        3.13586        0.82740
H          5.83560        4.74570        2.48390
H          7.26360        5.86350        3.97730
H          7.65490        7.00862        5.97201
H          9.15695        8.12335        7.46808
H         11.98339        7.41463        8.69143
H          9.83087        7.12950       10.85399
H         11.48243        7.96428       10.93885
H         10.82429        4.32462        8.65215
H          9.35285        3.19208        7.17203
H          7.23420        2.40560        6.59440
H          5.82040        1.28090        5.09270
H          3.72872        0.92024        4.12249
H          2.33583       -0.23389        2.58348
40

C          2.18514       -1.21198       -0.44065
C          2.21752        0.10737       -0.21000
C          3.08832        0.77657        0.79669
C          3.52009        2.08236        0.53754
C          4.34033        2.76225        1.44068
C          4.76860        2.15710        2.64570
C          5.67060        2.88650        3.61950
C          6.12220        4.19980        3.36700
C          6.96320        4.86860        4.26020
C          7.40900        4.25900        5.45210
C          8.34020        4.97550        6.40730
C          8.80287        6.28653        6.14542
C          9.67157        6.93913        7.02364
C         10.11995        6.31360        8.19293
C         11.05535        7.06009        9.08007
C         11.12942        6.91777       10.41018
C          9.66875        5.01240        8.47002
C          8.79478        4.35850        7.59687
C          6.95510        2.94740        5.70630
C          6.10610        2.28230        4.81790
C          4.32375        0.83713        2.89581
C          3.49884        0.16155        1.99100
H          1.51472       -1.60406       -1.19903
H          2.80081       -1.92077        0.09636
H          1.55649        0.72996       -0.80724
H          3.22385        2.58392       -0.37640
H          4.63644        3.75834        1.15807
H          5.83560        4.74570        2.48390
H          7.26360        5.86350        3.97730
H          8.50231        6.84037        5.27209
H          9.99820        7.94392        6.78256
H         11.73534        7.77263        8.62059
H         10.50273        6.23399       10.96677
H         11.84877        7.50673       10.97014
H          9.98276        4.48085        9.35535
H          8.50584        3.35838        7.87302
H          7.23420        2.40560        6.59440
H          5.82040        1.28090        5.09270
H          4.58933        0.29965        3.79017
H          3.19407       -0.84274        2.24456
40

C          1.78591       -1.18289       -0.09264
C          2.24132        0.07201       -0.20555
C          3.08716        0.76704        0.80491
C          3.99552        1.73358        0.35841
C          4.81835        2.41769        1.25598
C          4.76860        2.15710        2.64570
C          5.67060        2.88650        3.61950
C          6.12220        4.19980        3.36700
C          6.96320        4.86860        4.26020
C          7.40900        4.25900        5.45210
C          8.34020        4.97550        6.40730
C          8.33146        6.38475        6.53130
C          9.20084        7.04237        7.40511
C         10.11714        6.32739        8.18534
C         11.02459        7.09034        9.08736
C         11.51049        6.63578       10.25021
C         10.13804        4.92695        8.07662
C          9.26564        4.26497        7.20800
C          6.95510        2.94740        5.70630
C          6.10610        2.28230        4.81790
C          3.84493        1.17845        3.08368
C          3.01966        0.49896        2.18213
H          1.17535       -1.60166       -0.88648
H          1.99652       -1.81314        0.76073
H          1.96984        0.61726       -1.10571
H          4.07456        1.96151       -0.69818
H          5.49680        3.13586        0.82740
H          5.83560        4.74570        2.48390
H          7.26360        5.86350        3.97730
H          7.65490        7.00862        5.97201
H          9.15695        8.12335        7.46808
H         11.32316        8.09039        8.78406
H         11.28067        5.65448       10.64307
H         12.16944        7.26831       10.83637
H         10.82429        4.32462        8.65215
H          9.35285        3.19208        7.17203
H          7.23420        2.40560        6.59440
H          5.82040        1.28090        5.09270
H          3.72872        0.92024        4.12249
H          2.33583       -0.23389        2.58348
