
 OpenBabel02012213473D

 18 18  0  0  0  0  0  0  0  0999 V2000
    2.9059    0.0059    0.0048 C   0  0  0  0  0  0  0  0  0  0  0  0
    1.4057   -0.0089    0.0026 C   0  0  0  0  0  0  0  0  0  0  0  0
    0.6986   -1.2217    0.0013 C   0  0  0  0  0  0  0  0  0  0  0  0
   -0.6996   -1.2225   -0.0002 C   0  0  0  0  0  0  0  0  0  0  0  0
   -1.4082   -0.0106   -0.0008 C   0  0  0  0  0  0  0  0  0  0  0  0
   -2.9083    0.0023   -0.0023 C   0  0  0  0  0  0  0  0  0  0  0  0
   -0.7010    1.2008    0.0005 C   0  0  0  0  0  0  0  0  0  0  0  0
    0.6973    1.2017    0.0023 C   0  0  0  0  0  0  0  0  0  0  0  0
    3.3234   -1.0236    0.0035 H   0  0  0  0  0  0  0  0  0  0  0  0
    3.2725    0.5322    0.9111 H   0  0  0  0  0  0  0  0  0  0  0  0
    3.2754    0.5357   -0.8981 H   0  0  0  0  0  0  0  0  0  0  0  0
    1.2273   -2.1669    0.0015 H   0  0  0  0  0  0  0  0  0  0  0  0
   -1.2270   -2.1683   -0.0012 H   0  0  0  0  0  0  0  0  0  0  0  0
   -3.3246   -1.0277   -0.0024 H   0  0  0  0  0  0  0  0  0  0  0  0
   -3.2761    0.5298   -0.9073 H   0  0  0  0  0  0  0  0  0  0  0  0
   -3.2778    0.5303    0.9019 H   0  0  0  0  0  0  0  0  0  0  0  0
   -1.2335    2.1440   -0.0000 H   0  0  0  0  0  0  0  0  0  0  0  0
    1.2285    2.1456    0.0032 H   0  0  0  0  0  0  0  0  0  0  0  0
  1  2  1  0  0  0  0
  1  9  1  0  0  0  0
  1 10  1  0  0  0  0
  1 11  1  0  0  0  0
  2  3  1  0  0  0  0
  2  8  2  0  0  0  0
  3  4  2  0  0  0  0
  3 12  1  0  0  0  0
  4  5  1  0  0  0  0
  4 13  1  0  0  0  0
  5  6  1  0  0  0  0
  5  7  2  0  0  0  0
  6 14  1  0  0  0  0
  6 15  1  0  0  0  0
  6 16  1  0  0  0  0
  7  8  1  0  0  0  0
  7 17  1  0  0  0  0
  8 18  1  0  0  0  0
M  END
