
 OpenBabel02012213473D

 18 18  0  0  0  0  0  0  0  0999 V2000
    2.9071    0.0051    0.0051 C   0  0  0  0  0  0  0  0  0  0  0  0
    1.4074   -0.0057    0.0019 C   0  0  0  0  0  0  0  0  0  0  0  0
    0.6981   -1.2113    0.0022 C   0  0  0  0  0  0  0  0  0  0  0  0
   -0.6989   -1.2123    0.0005 C   0  0  0  0  0  0  0  0  0  0  0  0
   -1.4099   -0.0076   -0.0008 C   0  0  0  0  0  0  0  0  0  0  0  0
   -2.9095    0.0018   -0.0017 C   0  0  0  0  0  0  0  0  0  0  0  0
   -0.7007    1.1990   -0.0011 C   0  0  0  0  0  0  0  0  0  0  0  0
    0.6967    1.1996    0.0004 C   0  0  0  0  0  0  0  0  0  0  0  0
    3.3153   -1.0110   -0.0036 H   0  0  0  0  0  0  0  0  0  0  0  0
    3.2791    0.5083    0.9033 H   0  0  0  0  0  0  0  0  0  0  0  0
    3.2831    0.5245   -0.8820 H   0  0  0  0  0  0  0  0  0  0  0  0
    1.2270   -2.1615    0.0037 H   0  0  0  0  0  0  0  0  0  0  0  0
   -1.2269   -2.1629    0.0008 H   0  0  0  0  0  0  0  0  0  0  0  0
   -3.3167   -1.0147   -0.0001 H   0  0  0  0  0  0  0  0  0  0  0  0
   -3.2837    0.5113   -0.8954 H   0  0  0  0  0  0  0  0  0  0  0  0
   -3.2844    0.5143    0.8900 H   0  0  0  0  0  0  0  0  0  0  0  0
   -1.2332    2.1472   -0.0022 H   0  0  0  0  0  0  0  0  0  0  0  0
    1.2284    2.1485    0.0005 H   0  0  0  0  0  0  0  0  0  0  0  0
  1  2  1  0  0  0  0
  1  9  1  0  0  0  0
  1 10  1  0  0  0  0
  1 11  1  0  0  0  0
  2  3  1  0  0  0  0
  2  8  2  0  0  0  0
  3  4  2  0  0  0  0
  3 12  1  0  0  0  0
  4  5  1  0  0  0  0
  4 13  1  0  0  0  0
  5  6  1  0  0  0  0
  5  7  2  0  0  0  0
  6 14  1  0  0  0  0
  6 15  1  0  0  0  0
  6 16  1  0  0  0  0
  7  8  1  0  0  0  0
  7 17  1  0  0  0  0
  8 18  1  0  0  0  0
M  END
