
 OpenBabel02032211273D

 23 24  0  0  0  0  0  0  0  0999 V2000
    1.0682    0.0340   -0.1478 C   0  0  0  0  0  0  0  0  0  0  0  0
    2.3983    0.1064   -0.0080 C   0  0  0  0  0  0  0  0  0  0  0  0
    3.1671   -0.7393    0.8920 C   0  0  0  0  0  0  0  0  0  0  0  0
    2.8253   -2.1394    1.1843 C   0  0  0  0  0  0  0  0  0  0  0  0
    3.5380   -2.9412    2.0117 C   0  0  0  0  0  0  0  0  0  0  0  0
    3.1488   -4.3316    2.2324 C   0  0  0  0  0  0  0  0  0  0  0  0
    1.9010   -4.8220    2.2405 C   0  0  0  0  0  0  0  0  0  0  0  0
    4.7387   -2.3967    2.5868 C   0  0  0  0  0  0  0  0  0  0  0  0
    5.6441   -2.9317    3.3863 N   0  0  0  0  0  0  0  0  0  0  0  0
    6.5702   -1.9465    3.6049 C   0  0  0  0  0  0  0  0  0  0  0  0
    6.2359   -0.7973    2.9291 C   0  0  0  0  0  0  0  0  0  0  0  0
    5.0658   -1.0836    2.2707 N   0  0  0  0  0  0  0  0  0  0  0  0
    4.3079   -0.2693    1.4362 C   0  0  0  0  0  0  0  0  0  0  0  0
    0.5490    0.6844   -0.8472 H   0  0  0  0  0  0  0  0  0  0  0  0
    0.4581   -0.6541    0.4266 H   0  0  0  0  0  0  0  0  0  0  0  0
    2.9498    0.8369   -0.5976 H   0  0  0  0  0  0  0  0  0  0  0  0
    1.9474   -2.5258    0.6742 H   0  0  0  0  0  0  0  0  0  0  0  0
    3.9776   -5.0079    2.4425 H   0  0  0  0  0  0  0  0  0  0  0  0
    1.0253   -4.2041    2.0740 H   0  0  0  0  0  0  0  0  0  0  0  0
    1.7316   -5.8769    2.4335 H   0  0  0  0  0  0  0  0  0  0  0  0
    7.4312   -2.1184    4.2383 H   0  0  0  0  0  0  0  0  0  0  0  0
    6.7148    0.1683    2.8620 H   0  0  0  0  0  0  0  0  0  0  0  0
    4.6795    0.7353    1.2735 H   0  0  0  0  0  0  0  0  0  0  0  0
  1  2  2  0  0  0  0
  1 14  1  0  0  0  0
  1 15  1  0  0  0  0
  2  3  1  0  0  0  0
  2 16  1  0  0  0  0
  3  4  1  0  0  0  0
  3 13  2  0  0  0  0
  4  5  2  0  0  0  0
  4 17  1  0  0  0  0
  5  6  1  0  0  0  0
  5  8  1  0  0  0  0
  6  7  2  0  0  0  0
  6 18  1  0  0  0  0
  7 19  1  0  0  0  0
  7 20  1  0  0  0  0
  8  9  2  0  0  0  0
  8 12  1  0  0  0  0
  9 10  1  0  0  0  0
 10 11  2  0  0  0  0
 10 21  1  0  0  0  0
 11 12  1  0  0  0  0
 11 22  1  0  0  0  0
 12 13  1  0  0  0  0
 13 23  1  0  0  0  0
M  END
