44

C          1.10093        0.01412        0.16923
O          2.46050       -0.18590        0.04890
C          3.11250       -0.53340       -1.09090
C          4.28280       -1.30270       -0.97540
C          4.96240       -1.65700       -2.13940
C          6.10350       -2.39650       -2.31740
C          6.93770       -3.01640       -1.38870
C          8.07160       -3.70070       -1.85920
O          8.88080       -4.30190       -0.94900
C         10.24125       -4.48718       -1.08181
C          8.33780       -3.73280       -3.25480
C          7.47820       -3.09890       -4.16870
C          6.34120       -2.44010       -3.67640
N          5.37940       -1.75050       -4.36130
C          5.28310       -1.56040       -5.79760
C          4.03399       -1.41750       -6.42695
C          3.94222       -1.24430       -7.80957
C          5.09292       -1.20722       -8.61345
C          4.90195       -1.02372      -10.08452
C          5.73840       -0.41938      -10.94640
F          6.91880        0.13416      -10.57545
F          5.38967       -0.35007      -12.25799
C          6.34706       -1.34824       -7.98611
C          6.43629       -1.52075       -6.60151
C          4.53660       -1.27340       -3.39570
C          3.35770       -0.52650       -3.53890
C          2.65170       -0.15360       -2.38080
H          0.86752        0.29398        1.21703
H          0.55115       -0.91832       -0.07952
H          0.77507        0.84017       -0.49832
H          4.64630       -1.61200       -0.00370
H          6.72220       -2.96870       -0.32880
H         10.62639       -5.00619       -0.18041
H         10.75529       -3.50645       -1.17249
H         10.45776       -5.11534       -1.97214
H          9.21060       -4.24080       -3.64210
H          7.72920       -3.12680       -5.21620
H          3.11901       -1.41131       -5.85382
H          2.95969       -1.13388       -8.25316
H          3.98421       -1.42078      -10.51149
H          7.27133       -1.33867       -8.53549
H          7.41738       -1.65516       -6.17055
H          2.96440       -0.23690       -4.49960
H          1.74670        0.42690       -2.49770
44

C          1.29614        0.55065        0.11732
O          2.46050       -0.18590        0.04890
C          3.11250       -0.53340       -1.09090
C          4.28280       -1.30270       -0.97540
C          4.96240       -1.65700       -2.13940
C          6.10350       -2.39650       -2.31740
C          6.93770       -3.01640       -1.38870
C          8.07160       -3.70070       -1.85920
O          8.88080       -4.30190       -0.94900
C          9.63140       -5.43834       -1.16789
C          8.33780       -3.73280       -3.25480
C          7.47820       -3.09890       -4.16870
C          6.34120       -2.44010       -3.67640
N          5.37940       -1.75050       -4.36130
C          5.28310       -1.56040       -5.79760
C          4.03399       -1.41750       -6.42695
C          3.94222       -1.24430       -7.80957
C          5.09292       -1.20722       -8.61345
C          4.90195       -1.02372      -10.08452
C          3.90395       -0.36742      -10.70178
F          2.88837        0.23836      -10.03923
F          3.90113       -0.30670      -12.05934
C          6.34706       -1.34824       -7.98611
C          6.43629       -1.52075       -6.60151
C          4.53660       -1.27340       -3.39570
C          3.35770       -0.52650       -3.53890
C          2.65170       -0.15360       -2.38080
H          1.01007        0.67756        1.18162
H          0.47430        0.02140       -0.40998
H          1.45239        1.55588       -0.32908
H          4.64630       -1.61200       -0.00370
H          6.72220       -2.96870       -0.32880
H         10.18801       -5.68937       -0.24192
H         10.36371       -5.26337       -1.98484
H          8.96881       -6.29197       -1.42560
H          9.21060       -4.24080       -3.64210
H          7.72920       -3.12680       -5.21620
H          3.11901       -1.41131       -5.85382
H          2.95969       -1.13388       -8.25316
H          5.65096       -1.47016      -10.73403
H          7.27133       -1.33867       -8.53549
H          7.41738       -1.65516       -6.17055
H          2.96440       -0.23690       -4.49960
H          1.74670        0.42690       -2.49770
44

C          1.10093        0.01412        0.16923
O          2.46050       -0.18590        0.04890
C          3.11250       -0.53340       -1.09090
C          4.28280       -1.30270       -0.97540
C          4.96240       -1.65700       -2.13940
C          6.10350       -2.39650       -2.31740
C          6.93770       -3.01640       -1.38870
C          8.07160       -3.70070       -1.85920
O          8.88080       -4.30190       -0.94900
C          8.48016       -4.81578        0.26682
C          8.33780       -3.73280       -3.25480
C          7.47820       -3.09890       -4.16870
C          6.34120       -2.44010       -3.67640
N          5.37940       -1.75050       -4.36130
C          5.28310       -1.56040       -5.79760
C          4.03399       -1.41750       -6.42695
C          3.94222       -1.24430       -7.80957
C          5.09292       -1.20722       -8.61345
C          4.90195       -1.02372      -10.08452
C          5.73840       -0.41938      -10.94640
F          6.91880        0.13416      -10.57545
F          5.38967       -0.35007      -12.25799
C          6.34706       -1.34824       -7.98611
C          6.43629       -1.52075       -6.60151
C          4.53660       -1.27340       -3.39570
C          3.35770       -0.52650       -3.53890
C          2.65170       -0.15360       -2.38080
H          0.86752        0.29398        1.21703
H          0.55115       -0.91832       -0.07952
H          0.77507        0.84017       -0.49832
H          4.64630       -1.61200       -0.00370
H          6.72220       -2.96870       -0.32880
H          9.36135       -5.24151        0.78883
H          7.73381       -5.62454        0.11468
H          8.04778       -4.01149        0.89952
H          9.21060       -4.24080       -3.64210
H          7.72920       -3.12680       -5.21620
H          3.11901       -1.41131       -5.85382
H          2.95969       -1.13388       -8.25316
H          3.98421       -1.42078      -10.51149
H          7.27133       -1.33867       -8.53549
H          7.41738       -1.65516       -6.17055
H          2.96440       -0.23690       -4.49960
H          1.74670        0.42690       -2.49770
44

C          1.29614        0.55065        0.11732
O          2.46050       -0.18590        0.04890
C          3.11250       -0.53340       -1.09090
C          4.28280       -1.30270       -0.97540
C          4.96240       -1.65700       -2.13940
C          6.10350       -2.39650       -2.31740
C          6.93770       -3.01640       -1.38870
C          8.07160       -3.70070       -1.85920
O          8.88080       -4.30190       -0.94900
C         10.24125       -4.48718       -1.08181
C          8.33780       -3.73280       -3.25480
C          7.47820       -3.09890       -4.16870
C          6.34120       -2.44010       -3.67640
N          5.37940       -1.75050       -4.36130
C          5.28310       -1.56040       -5.79760
C          5.78456       -2.52356       -6.69071
C          5.69992       -2.33512       -8.07180
C          5.11196       -1.17963       -8.61108
C          5.06863       -1.05751      -10.10016
C          4.14325       -0.42157      -10.83974
F          3.07388        0.21835      -10.30652
F          4.27468       -0.41852      -12.19229
C          4.60641       -0.21262       -7.71910
C          4.69166       -0.40401       -6.33673
C          4.53660       -1.27340       -3.39570
C          3.35770       -0.52650       -3.53890
C          2.65170       -0.15360       -2.38080
H          1.01007        0.67756        1.18162
H          0.47430        0.02140       -0.40998
H          1.45239        1.55588       -0.32908
H          4.64630       -1.61200       -0.00370
H          6.72220       -2.96870       -0.32880
H         10.62639       -5.00619       -0.18041
H         10.75529       -3.50645       -1.17249
H         10.45776       -5.11534       -1.97214
H          9.21060       -4.24080       -3.64210
H          7.72920       -3.12680       -5.21620
H          6.22205       -3.44264       -6.33072
H          6.09531       -3.10473       -8.72425
H          5.87315       -1.53595      -10.65339
H          4.15027        0.70086       -8.05630
H          4.31803        0.37894       -5.69352
H          2.96440       -0.23690       -4.49960
H          1.74670        0.42690       -2.49770
44

C          1.29614        0.55065        0.11732
O          2.46050       -0.18590        0.04890
C          3.11250       -0.53340       -1.09090
C          4.28280       -1.30270       -0.97540
C          4.96240       -1.65700       -2.13940
C          6.10350       -2.39650       -2.31740
C          6.93770       -3.01640       -1.38870
C          8.07160       -3.70070       -1.85920
O          8.88080       -4.30190       -0.94900
C          9.63140       -5.43834       -1.16789
C          8.33780       -3.73280       -3.25480
C          7.47820       -3.09890       -4.16870
C          6.34120       -2.44010       -3.67640
N          5.37940       -1.75050       -4.36130
C          5.28310       -1.56040       -5.79760
C          6.24174       -2.11039       -6.66668
C          6.15329       -1.91880       -8.04709
C          5.10556       -1.17217       -8.60966
C          5.09164       -1.01282      -10.09579
C          5.97815       -1.50737      -10.97741
F          7.05561       -2.24627      -10.61620
F          5.79668       -1.25505      -12.30031
C          4.14154       -0.62076       -7.74195
C          4.23190       -0.81469       -6.36026
C          4.53660       -1.27340       -3.39570
C          3.35770       -0.52650       -3.53890
C          2.65170       -0.15360       -2.38080
H          1.01007        0.67756        1.18162
H          0.47430        0.02140       -0.40998
H          1.45239        1.55588       -0.32908
H          4.64630       -1.61200       -0.00370
H          6.72220       -2.96870       -0.32880
H         10.18801       -5.68937       -0.24192
H         10.36371       -5.26337       -1.98484
H          8.96881       -6.29197       -1.42560
H          9.21060       -4.24080       -3.64210
H          7.72920       -3.12680       -5.21620
H          7.05274       -2.71557       -6.29019
H          6.91125       -2.36391       -8.68090
H          4.27535       -0.43129      -10.51735
H          3.31579       -0.03070       -8.09717
H          3.48685       -0.34688       -5.73386
H          2.96440       -0.23690       -4.49960
H          1.74670        0.42690       -2.49770
44

C          3.04574        0.01249        1.28222
O          2.46050       -0.18590        0.04890
C          3.11250       -0.53340       -1.09090
C          4.28280       -1.30270       -0.97540
C          4.96240       -1.65700       -2.13940
C          6.10350       -2.39650       -2.31740
C          6.93770       -3.01640       -1.38870
C          8.07160       -3.70070       -1.85920
O          8.88080       -4.30190       -0.94900
C         10.03533       -4.99961       -1.23721
C          8.33780       -3.73280       -3.25480
C          7.47820       -3.09890       -4.16870
C          6.34120       -2.44010       -3.67640
N          5.37940       -1.75050       -4.36130
C          5.28310       -1.56040       -5.79760
C          5.78456       -2.52356       -6.69071
C          5.69992       -2.33512       -8.07180
C          5.11196       -1.17963       -8.61108
C          5.06863       -1.05751      -10.10016
C          4.09176       -1.47439      -10.92458
F          2.96648       -2.09481      -10.49309
F          4.23220       -1.27282      -12.26111
C          4.60641       -0.21262       -7.71910
C          4.69166       -0.40401       -6.33673
C          4.53660       -1.27340       -3.39570
C          3.35770       -0.52650       -3.53890
C          2.65170       -0.15360       -2.38080
H          2.25920        0.28026        2.01729
H          3.78037        0.84388        1.23044
H          3.54564       -0.91926        1.62294
H          4.64630       -1.61200       -0.00370
H          6.72220       -2.96870       -0.32880
H         10.47829       -5.37431       -0.29189
H         10.77261       -4.33346       -1.73414
H          9.80553       -5.86871       -1.88990
H          9.21060       -4.24080       -3.64210
H          7.72920       -3.12680       -5.21620
H          6.22205       -3.44264       -6.33072
H          6.09531       -3.10473       -8.72425
H          5.92118       -0.57937      -10.57634
H          4.15027        0.70086       -8.05630
H          4.31803        0.37894       -5.69352
H          2.96440       -0.23690       -4.49960
H          1.74670        0.42690       -2.49770
44

C          1.29614        0.55065        0.11732
O          2.46050       -0.18590        0.04890
C          3.11250       -0.53340       -1.09090
C          4.28280       -1.30270       -0.97540
C          4.96240       -1.65700       -2.13940
C          6.10350       -2.39650       -2.31740
C          6.93770       -3.01640       -1.38870
C          8.07160       -3.70070       -1.85920
O          8.88080       -4.30190       -0.94900
C          8.48016       -4.81578        0.26682
C          8.33780       -3.73280       -3.25480
C          7.47820       -3.09890       -4.16870
C          6.34120       -2.44010       -3.67640
N          5.37940       -1.75050       -4.36130
C          5.28310       -1.56040       -5.79760
C          6.24174       -2.11039       -6.66668
C          6.15329       -1.91880       -8.04709
C          5.10556       -1.17217       -8.60966
C          5.09164       -1.01282      -10.09579
C          4.49285       -1.81191      -10.99615
F          3.79427       -2.92329      -10.65824
F          4.59120       -1.50121      -12.31541
C          4.14154       -0.62076       -7.74195
C          4.23190       -0.81469       -6.36026
C          4.53660       -1.27340       -3.39570
C          3.35770       -0.52650       -3.53890
C          2.65170       -0.15360       -2.38080
H          1.01007        0.67756        1.18162
H          0.47430        0.02140       -0.40998
H          1.45239        1.55588       -0.32908
H          4.64630       -1.61200       -0.00370
H          6.72220       -2.96870       -0.32880
H          9.36135       -5.24151        0.78883
H          7.73381       -5.62454        0.11468
H          8.04778       -4.01149        0.89952
H          9.21060       -4.24080       -3.64210
H          7.72920       -3.12680       -5.21620
H          7.05274       -2.71557       -6.29019
H          6.91125       -2.36391       -8.68090
H          5.62532       -0.15632      -10.50051
H          3.31579       -0.03070       -8.09717
H          3.48685       -0.34688       -5.73386
H          2.96440       -0.23690       -4.49960
H          1.74670        0.42690       -2.49770
44

C          3.04574        0.01249        1.28222
O          2.46050       -0.18590        0.04890
C          3.11250       -0.53340       -1.09090
C          4.28280       -1.30270       -0.97540
C          4.96240       -1.65700       -2.13940
C          6.10350       -2.39650       -2.31740
C          6.93770       -3.01640       -1.38870
C          8.07160       -3.70070       -1.85920
O          8.88080       -4.30190       -0.94900
C          9.07713       -3.88470        0.35108
C          8.33780       -3.73280       -3.25480
C          7.47820       -3.09890       -4.16870
C          6.34120       -2.44010       -3.67640
N          5.37940       -1.75050       -4.36130
C          5.28310       -1.56040       -5.79760
C          5.78456       -2.52356       -6.69071
C          5.69992       -2.33512       -8.07180
C          5.11196       -1.17963       -8.61108
C          5.06863       -1.05751      -10.10016
C          4.14325       -0.42157      -10.83974
F          3.07388        0.21835      -10.30652
F          4.27468       -0.41852      -12.19229
C          4.60641       -0.21262       -7.71910
C          4.69166       -0.40401       -6.33673
C          4.53660       -1.27340       -3.39570
C          3.35770       -0.52650       -3.53890
C          2.65170       -0.15360       -2.38080
H          2.25920        0.28026        2.01729
H          3.78037        0.84388        1.23044
H          3.54564       -0.91926        1.62294
H          4.64630       -1.61200       -0.00370
H          6.72220       -2.96870       -0.32880
H          9.79047       -4.57275        0.84905
H          8.11712       -3.90471        0.90988
H          9.50529       -2.85969        0.36452
H          9.21060       -4.24080       -3.64210
H          7.72920       -3.12680       -5.21620
H          6.22205       -3.44264       -6.33072
H          6.09531       -3.10473       -8.72425
H          5.87315       -1.53595      -10.65339
H          4.15027        0.70086       -8.05630
H          4.31803        0.37894       -5.69352
H          2.96440       -0.23690       -4.49960
H          1.74670        0.42690       -2.49770
44

C          2.84483       -0.52228        1.33033
O          2.46050       -0.18590        0.04890
C          3.11250       -0.53340       -1.09090
C          4.28280       -1.30270       -0.97540
C          4.96240       -1.65700       -2.13940
C          6.10350       -2.39650       -2.31740
C          6.93770       -3.01640       -1.38870
C          8.07160       -3.70070       -1.85920
O          8.88080       -4.30190       -0.94900
C          8.48016       -4.81578        0.26682
C          8.33780       -3.73280       -3.25480
C          7.47820       -3.09890       -4.16870
C          6.34120       -2.44010       -3.67640
N          5.37940       -1.75050       -4.36130
C          5.28310       -1.56040       -5.79760
C          5.78456       -2.52356       -6.69071
C          5.69992       -2.33512       -8.07180
C          5.11196       -1.17963       -8.61108
C          5.06863       -1.05751      -10.10016
C          4.14325       -0.42157      -10.83974
F          3.07388        0.21835      -10.30652
F          4.27468       -0.41852      -12.19229
C          4.60641       -0.21262       -7.71910
C          4.69166       -0.40401       -6.33673
C          4.53660       -1.27340       -3.39570
C          3.35770       -0.52650       -3.53890
C          2.65170       -0.15360       -2.38080
H          2.11259       -0.10203        2.04998
H          3.84646       -0.09851        1.55556
H          2.86151       -1.62690        1.44734
H          4.64630       -1.61200       -0.00370
H          6.72220       -2.96870       -0.32880
H          9.36135       -5.24151        0.78883
H          7.73381       -5.62454        0.11468
H          8.04778       -4.01149        0.89952
H          9.21060       -4.24080       -3.64210
H          7.72920       -3.12680       -5.21620
H          6.22205       -3.44264       -6.33072
H          6.09531       -3.10473       -8.72425
H          5.87315       -1.53595      -10.65339
H          4.15027        0.70086       -8.05630
H          4.31803        0.37894       -5.69352
H          2.96440       -0.23690       -4.49960
H          1.74670        0.42690       -2.49770
44

C          3.04574        0.01249        1.28222
O          2.46050       -0.18590        0.04890
C          3.11250       -0.53340       -1.09090
C          4.28280       -1.30270       -0.97540
C          4.96240       -1.65700       -2.13940
C          6.10350       -2.39650       -2.31740
C          6.93770       -3.01640       -1.38870
C          8.07160       -3.70070       -1.85920
O          8.88080       -4.30190       -0.94900
C          8.48016       -4.81578        0.26682
C          8.33780       -3.73280       -3.25480
C          7.47820       -3.09890       -4.16870
C          6.34120       -2.44010       -3.67640
N          5.37940       -1.75050       -4.36130
C          5.28310       -1.56040       -5.79760
C          4.03399       -1.41750       -6.42695
C          3.94222       -1.24430       -7.80957
C          5.09292       -1.20722       -8.61345
C          4.90195       -1.02372      -10.08452
C          3.90395       -0.36742      -10.70178
F          2.88837        0.23836      -10.03923
F          3.90113       -0.30670      -12.05934
C          6.34706       -1.34824       -7.98611
C          6.43629       -1.52075       -6.60151
C          4.53660       -1.27340       -3.39570
C          3.35770       -0.52650       -3.53890
C          2.65170       -0.15360       -2.38080
H          2.25920        0.28026        2.01729
H          3.78037        0.84388        1.23044
H          3.54564       -0.91926        1.62294
H          4.64630       -1.61200       -0.00370
H          6.72220       -2.96870       -0.32880
H          9.36135       -5.24151        0.78883
H          7.73381       -5.62454        0.11468
H          8.04778       -4.01149        0.89952
H          9.21060       -4.24080       -3.64210
H          7.72920       -3.12680       -5.21620
H          3.11901       -1.41131       -5.85382
H          2.95969       -1.13388       -8.25316
H          5.65096       -1.47016      -10.73403
H          7.27133       -1.33867       -8.53549
H          7.41738       -1.65516       -6.17055
H          2.96440       -0.23690       -4.49960
H          1.74670        0.42690       -2.49770
