24

C          2.90670       -0.19300        0.17210
C          1.41010       -0.04260        0.10380
C          0.66390       -1.23570        0.08870
C         -0.73950       -1.25430        0.01090
C         -1.40090       -2.60250       -0.04770
O         -2.51748       -2.74113        0.42769
O         -0.76939       -3.71235       -0.48982
C         -1.42210       -0.01020       -0.01860
C         -2.92360        0.15560        0.01740
C         -0.68050        1.18090       -0.01810
C          0.73070        1.21140        0.04070
C          1.36970        2.58900        0.03600
O          0.79928        3.49238       -0.55716
O          2.53302        2.91872        0.64244
H          3.22610       -1.25700        0.17950
H          3.28750        0.24620        1.11650
H          3.37400        0.26950       -0.72240
H          1.19500       -2.18010        0.11810
H          0.18350       -3.75942       -0.63598
H         -3.48760       -0.76940        0.21120
H         -3.27770        0.63300       -0.92080
H         -3.18890        0.81610        0.87080
H         -1.23620        2.11150       -0.04270
H          3.09503        2.36156        1.17974
24

C          2.90670       -0.19300        0.17210
C          1.41010       -0.04260        0.10380
C          0.66390       -1.23570        0.08870
C         -0.73950       -1.25430        0.01090
C         -1.40090       -2.60250       -0.04770
O         -2.45812       -2.72352       -0.64737
O         -0.94893       -3.67344        0.64139
C         -1.42210       -0.01020       -0.01860
C         -2.92360        0.15560        0.01740
C         -0.68050        1.18090       -0.01810
C          0.73070        1.21140        0.04070
C          1.36970        2.58900        0.03600
O          0.79928        3.49238       -0.55716
O          2.53302        2.91872        0.64244
H          3.22610       -1.25700        0.17950
H          3.28750        0.24620        1.11650
H          3.37400        0.26950       -0.72240
H          1.19500       -2.18010        0.11810
H         -0.28645       -3.61479        1.34087
H         -3.48760       -0.76940        0.21120
H         -3.27770        0.63300       -0.92080
H         -3.18890        0.81610        0.87080
H         -1.23620        2.11150       -0.04270
H          3.09503        2.36156        1.17974
24

C          2.90670       -0.19300        0.17210
C          1.41010       -0.04260        0.10380
C          0.66390       -1.23570        0.08870
C         -0.73950       -1.25430        0.01090
C         -1.40090       -2.60250       -0.04770
O         -0.86286       -3.55575        0.49433
O         -2.50785       -2.84674       -0.78325
C         -1.42210       -0.01020       -0.01860
C         -2.92360        0.15560        0.01740
C         -0.68050        1.18090       -0.01810
C          0.73070        1.21140        0.04070
C          1.36970        2.58900        0.03600
O          0.63995        3.56815       -0.00930
O          2.69805        2.84026        0.08228
H          3.22610       -1.25700        0.17950
H          3.28750        0.24620        1.11650
H          3.37400        0.26950       -0.72240
H          1.19500       -2.18010        0.11810
H         -2.85105       -2.23549       -1.44671
H         -3.48760       -0.76940        0.21120
H         -3.27770        0.63300       -0.92080
H         -3.18890        0.81610        0.87080
H         -1.23620        2.11150       -0.04270
H          3.41375        2.21024        0.15868
24

C          2.90670       -0.19300        0.17210
C          1.41010       -0.04260        0.10380
C          0.66390       -1.23570        0.08870
C         -0.73950       -1.25430        0.01090
C         -1.40090       -2.60250       -0.04770
O         -0.86286       -3.55575        0.49433
O         -2.50785       -2.84674       -0.78325
C         -1.42210       -0.01020       -0.01860
C         -2.92360        0.15560        0.01740
C         -0.68050        1.18090       -0.01810
C          0.73070        1.21140        0.04070
C          1.36970        2.58900        0.03600
O          0.79928        3.49238       -0.55716
O          2.53302        2.91872        0.64244
H          3.22610       -1.25700        0.17950
H          3.28750        0.24620        1.11650
H          3.37400        0.26950       -0.72240
H          1.19500       -2.18010        0.11810
H         -2.85105       -2.23549       -1.44671
H         -3.48760       -0.76940        0.21120
H         -3.27770        0.63300       -0.92080
H         -3.18890        0.81610        0.87080
H         -1.23620        2.11150       -0.04270
H          3.09503        2.36156        1.17974
24

C          2.90670       -0.19300        0.17210
C          1.41010       -0.04260        0.10380
C          0.66390       -1.23570        0.08870
C         -0.73950       -1.25430        0.01090
C         -1.40090       -2.60250       -0.04770
O         -0.80475       -3.53851       -0.55803
O         -2.68360       -2.80865        0.32408
C         -1.42210       -0.01020       -0.01860
C         -2.92360        0.15560        0.01740
C         -0.68050        1.18090       -0.01810
C          0.73070        1.21140        0.04070
C          1.36970        2.58900        0.03600
O          0.79928        3.49238       -0.55716
O          2.53302        2.91872        0.64244
H          3.22610       -1.25700        0.17950
H          3.28750        0.24620        1.11650
H          3.37400        0.26950       -0.72240
H          1.19500       -2.18010        0.11810
H         -3.31108       -2.09392        0.48840
H         -3.48760       -0.76940        0.21120
H         -3.27770        0.63300       -0.92080
H         -3.18890        0.81610        0.87080
H         -1.23620        2.11150       -0.04270
H          3.09503        2.36156        1.17974
24

C          2.90670       -0.19300        0.17210
C          1.41010       -0.04260        0.10380
C          0.66390       -1.23570        0.08870
C         -0.73950       -1.25430        0.01090
C         -1.40090       -2.60250       -0.04770
O         -0.70879       -3.60872       -0.02596
O         -2.72698       -2.76230       -0.25267
C         -1.42210       -0.01020       -0.01860
C         -2.92360        0.15560        0.01740
C         -0.68050        1.18090       -0.01810
C          0.73070        1.21140        0.04070
C          1.36970        2.58900        0.03600
O          0.79928        3.49238       -0.55716
O          2.53302        2.91872        0.64244
H          3.22610       -1.25700        0.17950
H          3.28750        0.24620        1.11650
H          3.37400        0.26950       -0.72240
H          1.19500       -2.18010        0.11810
H         -3.31005       -2.04964       -0.54201
H         -3.48760       -0.76940        0.21120
H         -3.27770        0.63300       -0.92080
H         -3.18890        0.81610        0.87080
H         -1.23620        2.11150       -0.04270
H          3.09503        2.36156        1.17974
24

C          2.90670       -0.19300        0.17210
C          1.41010       -0.04260        0.10380
C          0.66390       -1.23570        0.08870
C         -0.73950       -1.25430        0.01090
C         -1.40090       -2.60250       -0.04770
O         -0.70879       -3.60872       -0.02596
O         -2.72698       -2.76230       -0.25267
C         -1.42210       -0.01020       -0.01860
C         -2.92360        0.15560        0.01740
C         -0.68050        1.18090       -0.01810
C          0.73070        1.21140        0.04070
C          1.36970        2.58900        0.03600
O          0.74868        3.51955        0.52766
O          2.58864        2.88913       -0.46787
H          3.22610       -1.25700        0.17950
H          3.28750        0.24620        1.11650
H          3.37400        0.26950       -0.72240
H          1.19500       -2.18010        0.11810
H         -3.31005       -2.04964       -0.54201
H         -3.48760       -0.76940        0.21120
H         -3.27770        0.63300       -0.92080
H         -3.18890        0.81610        0.87080
H         -1.23620        2.11150       -0.04270
H          3.22906        2.29246       -0.85365
24

C          2.90670       -0.19300        0.17210
C          1.41010       -0.04260        0.10380
C          0.66390       -1.23570        0.08870
C         -0.73950       -1.25430        0.01090
C         -1.40090       -2.60250       -0.04770
O         -0.70879       -3.60872       -0.02596
O         -2.72698       -2.76230       -0.25267
C         -1.42210       -0.01020       -0.01860
C         -2.92360        0.15560        0.01740
C         -0.68050        1.18090       -0.01810
C          0.73070        1.21140        0.04070
C          1.36970        2.58900        0.03600
O          0.63995        3.56815       -0.00930
O          2.69805        2.84026        0.08228
H          3.22610       -1.25700        0.17950
H          3.28750        0.24620        1.11650
H          3.37400        0.26950       -0.72240
H          1.19500       -2.18010        0.11810
H         -3.31005       -2.04964       -0.54201
H         -3.48760       -0.76940        0.21120
H         -3.27770        0.63300       -0.92080
H         -3.18890        0.81610        0.87080
H         -1.23620        2.11150       -0.04270
H          3.41375        2.21024        0.15868
24

C          2.90670       -0.19300        0.17210
C          1.41010       -0.04260        0.10380
C          0.66390       -1.23570        0.08870
C         -0.73950       -1.25430        0.01090
C         -1.40090       -2.60250       -0.04770
O         -0.80475       -3.53851       -0.55803
O         -2.68360       -2.80865        0.32408
C         -1.42210       -0.01020       -0.01860
C         -2.92360        0.15560        0.01740
C         -0.68050        1.18090       -0.01810
C          0.73070        1.21140        0.04070
C          1.36970        2.58900        0.03600
O          0.74868        3.51955        0.52766
O          2.58864        2.88913       -0.46787
H          3.22610       -1.25700        0.17950
H          3.28750        0.24620        1.11650
H          3.37400        0.26950       -0.72240
H          1.19500       -2.18010        0.11810
H         -3.31108       -2.09392        0.48840
H         -3.48760       -0.76940        0.21120
H         -3.27770        0.63300       -0.92080
H         -3.18890        0.81610        0.87080
H         -1.23620        2.11150       -0.04270
H          3.22906        2.29246       -0.85365
24

C          2.90670       -0.19300        0.17210
C          1.41010       -0.04260        0.10380
C          0.66390       -1.23570        0.08870
C         -0.73950       -1.25430        0.01090
C         -1.40090       -2.60250       -0.04770
O         -0.80475       -3.53851       -0.55803
O         -2.68360       -2.80865        0.32408
C         -1.42210       -0.01020       -0.01860
C         -2.92360        0.15560        0.01740
C         -0.68050        1.18090       -0.01810
C          0.73070        1.21140        0.04070
C          1.36970        2.58900        0.03600
O          0.63995        3.56815       -0.00930
O          2.69805        2.84026        0.08228
H          3.22610       -1.25700        0.17950
H          3.28750        0.24620        1.11650
H          3.37400        0.26950       -0.72240
H          1.19500       -2.18010        0.11810
H         -3.31108       -2.09392        0.48840
H         -3.48760       -0.76940        0.21120
H         -3.27770        0.63300       -0.92080
H         -3.18890        0.81610        0.87080
H         -1.23620        2.11150       -0.04270
H          3.41375        2.21024        0.15868
