
  xtb     02032211353D
 xtb: 6.4.1 (23d549d)
 17 17  0     0  0            999 V2000
    1.7675    1.9262   -0.3526 C   0  0  0  0  0  0  0  0  0  0  0  0
    1.7095    0.8011    0.3460 C   0  0  0  0  0  0  0  0  0  0  0  0
    0.7086   -0.2396    0.1891 C   0  0  0  0  0  0  0  0  0  0  0  0
    1.0169   -1.6280    0.2529 C   0  0  0  0  0  0  0  0  0  0  0  0
   -0.1340   -2.2930   -0.0244 C   0  0  0  0  0  0  0  0  0  0  0  0
   -1.1367   -1.4321   -0.2416 O   0  0  0  0  0  0  0  0  0  0  0  0
   -0.6430   -0.1735   -0.1069 C   0  0  0  0  0  0  0  0  0  0  0  0
   -1.6169    0.8860   -0.2171 C   0  0  0  0  0  0  0  0  0  0  0  0
   -1.4856    2.1363    0.2134 C   0  0  0  0  0  0  0  0  0  0  0  0
    2.5647    2.6360   -0.2113 H   0  0  0  0  0  0  0  0  0  0  0  0
    1.0276    2.1713   -1.0954 H   0  0  0  0  0  0  0  0  0  0  0  0
    2.4956    0.5626    1.0525 H   0  0  0  0  0  0  0  0  0  0  0  0
    1.9773   -2.0550    0.4596 H   0  0  0  0  0  0  0  0  0  0  0  0
   -0.3606   -3.3389   -0.0914 H   0  0  0  0  0  0  0  0  0  0  0  0
   -2.5506    0.5584   -0.6575 H   0  0  0  0  0  0  0  0  0  0  0  0
   -0.5875    2.4858    0.6907 H   0  0  0  0  0  0  0  0  0  0  0  0
   -2.2877    2.8455    0.1070 H   0  0  0  0  0  0  0  0  0  0  0  0
  1  2  2  0  0  0  0
  2  3  1  0  0  0  0
  3  4  4  0  0  0  0
  4  5  2  0  0  0  0
  5  6  1  0  0  0  0
  3  7  4  0  0  0  0
  6  7  1  0  0  0  0
  7  8  1  0  0  0  0
  8  9  2  0  0  0  0
  1 10  1  0  0  0  0
  1 11  1  0  0  0  0
  2 12  1  0  0  0  0
  4 13  1  0  0  0  0
  5 14  1  0  0  0  0
  8 15  1  0  0  0  0
  9 16  1  0  0  0  0
  9 17  1  0  0  0  0
M  END
