
  xtb     02032211353D
 xtb: 6.4.1 (23d549d)
 26 26  0     0  0            999 V2000
   -4.0999    1.7298    0.2253 C   0  0  0  0  0  0  0  0  0  0  0  0
   -3.3986    0.7646   -0.3540 C   0  0  0  0  0  0  0  0  0  0  0  0
   -1.9693    0.5337   -0.1496 C   0  0  0  0  0  0  0  0  0  0  0  0
   -1.1145    1.6259    0.0145 C   0  0  0  0  0  0  0  0  0  0  0  0
    0.2507    1.4576    0.1356 C   0  0  0  0  0  0  0  0  0  0  0  0
    0.7725    0.1794    0.0696 C   0  0  0  0  0  0  0  0  0  0  0  0
    2.5465   -0.0534    0.1511 S   0  0  0  0  0  0  0  0  0  0  0  0
    3.0597    0.1154   -1.5869 C   0  0  0  0  0  0  0  0  0  0  0  0
    3.1310    1.0281    0.8965 O   0  0  0  0  0  0  0  0  0  0  0  0
    2.8269   -1.3999    0.5707 O   0  0  0  0  0  0  0  0  0  0  0  0
   -0.0428   -0.9171   -0.0948 C   0  0  0  0  0  0  0  0  0  0  0  0
   -1.4268   -0.7654   -0.1827 C   0  0  0  0  0  0  0  0  0  0  0  0
   -2.2407   -1.9758   -0.2761 C   0  0  0  0  0  0  0  0  0  0  0  0
   -3.4279   -2.1542    0.2881 C   0  0  0  0  0  0  0  0  0  0  0  0
   -5.1475    1.8669    0.0191 H   0  0  0  0  0  0  0  0  0  0  0  0
   -3.6642    2.4010    0.9464 H   0  0  0  0  0  0  0  0  0  0  0  0
   -3.8846    0.0809   -1.0386 H   0  0  0  0  0  0  0  0  0  0  0  0
   -1.5352    2.6198    0.0261 H   0  0  0  0  0  0  0  0  0  0  0  0
    0.9185    2.2915    0.2828 H   0  0  0  0  0  0  0  0  0  0  0  0
    2.7786    1.1038   -1.9257 H   0  0  0  0  0  0  0  0  0  0  0  0
    2.5625   -0.6564   -2.1596 H   0  0  0  0  0  0  0  0  0  0  0  0
    4.1342   -0.0110   -1.6281 H   0  0  0  0  0  0  0  0  0  0  0  0
    0.4082   -1.8978   -0.1171 H   0  0  0  0  0  0  0  0  0  0  0  0
   -1.7735   -2.7954   -0.8080 H   0  0  0  0  0  0  0  0  0  0  0  0
   -3.9022   -1.3894    0.8793 H   0  0  0  0  0  0  0  0  0  0  0  0
   -3.9553   -3.0889    0.2004 H   0  0  0  0  0  0  0  0  0  0  0  0
  1  2  2  0  0  0  0
  2  3  1  0  0  0  0
  3  4  4  0  0  0  0
  4  5  4  0  0  0  0
  5  6  4  0  0  0  0
  6  7  1  0  0  0  0
  7  8  1  0  0  0  0
  7  9  2  0  0  0  0
  7 10  2  0  0  0  0
  6 11  4  0  0  0  0
  3 12  4  0  0  0  0
 11 12  4  0  0  0  0
 12 13  1  0  0  0  0
 13 14  2  0  0  0  0
  1 15  1  0  0  0  0
  1 16  1  0  0  0  0
  2 17  1  0  0  0  0
  4 18  1  0  0  0  0
  5 19  1  0  0  0  0
  8 20  1  0  0  0  0
  8 21  1  0  0  0  0
  8 22  1  0  0  0  0
 11 23  1  0  0  0  0
 13 24  1  0  0  0  0
 14 25  1  0  0  0  0
 14 26  1  0  0  0  0
M  END
