
  xtb     02032211343D
 xtb: 6.4.1 (23d549d)
 20 20  0     0  0            999 V2000
    4.3853    1.6162   -0.0358 C   0  0  0  0  0  0  0  0  0  0  0  0
    3.0655    1.7511    0.0071 C   0  0  0  0  0  0  0  0  0  0  0  0
    2.0782    0.6770    0.0092 C   0  0  0  0  0  0  0  0  0  0  0  0
    2.4229   -0.6758    0.0149 C   0  0  0  0  0  0  0  0  0  0  0  0
    1.4409   -1.6478    0.0159 C   0  0  0  0  0  0  0  0  0  0  0  0
    0.1008   -1.3055    0.0110 C   0  0  0  0  0  0  0  0  0  0  0  0
   -0.2734    0.0393    0.0065 C   0  0  0  0  0  0  0  0  0  0  0  0
   -1.6579    0.4874    0.0022 C   0  0  0  0  0  0  0  0  0  0  0  0
   -2.7623   -0.2436   -0.0055 C   0  0  0  0  0  0  0  0  0  0  0  0
   -2.8715   -1.5667   -0.0111 F   0  0  0  0  0  0  0  0  0  0  0  0
   -3.9847    0.2875   -0.0090 F   0  0  0  0  0  0  0  0  0  0  0  0
    0.7262    1.0105    0.0067 C   0  0  0  0  0  0  0  0  0  0  0  0
    5.0344    2.4749   -0.0350 H   0  0  0  0  0  0  0  0  0  0  0  0
    4.8746    0.6584   -0.0755 H   0  0  0  0  0  0  0  0  0  0  0  0
    2.6429    2.7480    0.0408 H   0  0  0  0  0  0  0  0  0  0  0  0
    3.4605   -0.9698    0.0212 H   0  0  0  0  0  0  0  0  0  0  0  0
    1.7213   -2.6908    0.0210 H   0  0  0  0  0  0  0  0  0  0  0  0
   -0.6444   -2.0833    0.0119 H   0  0  0  0  0  0  0  0  0  0  0  0
   -1.8183    1.5562    0.0050 H   0  0  0  0  0  0  0  0  0  0  0  0
    0.4438    2.0543    0.0034 H   0  0  0  0  0  0  0  0  0  0  0  0
  1  2  2  0  0  0  0
  2  3  1  0  0  0  0
  3  4  4  0  0  0  0
  4  5  4  0  0  0  0
  5  6  4  0  0  0  0
  6  7  4  0  0  0  0
  7  8  1  0  0  0  0
  8  9  2  0  0  0  0
  9 10  1  0  0  0  0
  9 11  1  0  0  0  0
  3 12  4  0  0  0  0
  7 12  4  0  0  0  0
  1 13  1  0  0  0  0
  1 14  1  0  0  0  0
  2 15  1  0  0  0  0
  4 16  1  0  0  0  0
  5 17  1  0  0  0  0
  6 18  1  0  0  0  0
  8 19  1  0  0  0  0
 12 20  1  0  0  0  0
M  END
