26

C          1.43896        0.45075        1.27458
C          2.34150       -0.01770        0.40220
C          3.19390       -1.22260        0.61270
C          4.44030       -1.04890        1.21780
C          5.28890       -2.13070        1.43650
C          4.92700       -3.44300        1.05750
C          5.85740       -4.59280        1.33240
C          5.47919       -5.85744        1.57365
C          3.65120       -3.63180        0.43770
C          3.12570       -4.97600       -0.04430
C          4.05204       -5.58775       -1.09296
C          2.80930       -2.51880        0.23070
H          0.86610        1.33689        1.02223
H          1.24381       -0.01466        2.23086
H          2.45338        0.52779       -0.53151
H          4.76580       -0.06150        1.52410
H          6.22950       -1.91100        1.91350
H          6.92517       -4.44737        1.33753
H          4.45063       -6.18516        1.60293
H          6.23836       -6.61272        1.75373
H          2.12176       -4.93083       -0.49094
H          3.03087       -5.65869        0.82824
H          4.09964       -4.92310       -1.98270
H          3.65307       -6.57423       -1.41098
H          5.07683       -5.73365       -0.69335
H          1.85420       -2.68350       -0.24490
26

C          2.34720        1.07605        1.17598
C          2.34150       -0.01770        0.40220
C          3.19390       -1.22260        0.61270
C          4.44030       -1.04890        1.21780
C          5.28890       -2.13070        1.43650
C          4.92700       -3.44300        1.05750
C          5.85740       -4.59280        1.33240
C          5.62637       -5.87387        1.00677
C          3.65120       -3.63180        0.43770
C          3.12570       -4.97600       -0.04430
C          3.01068       -5.97024        1.10908
C          2.80930       -2.51880        0.23070
H          1.68300        1.89984        0.93659
H          2.98511        1.18427        2.04231
H          1.65675       -0.02018       -0.44219
H          4.76580       -0.06150        1.52410
H          6.22950       -1.91100        1.91350
H          6.80514       -4.42947        1.81864
H          4.73090       -6.21925        0.51176
H          6.37263       -6.62507        1.24768
H          3.74953       -5.45079       -0.81555
H          2.13210       -4.82397       -0.51972
H          4.01657       -6.15539        1.54446
H          2.60784       -6.93350        0.73049
H          2.33468       -5.59299        1.90399
H          1.85420       -2.68350       -0.24490
26

C          2.35236        0.75307       -0.69364
C          2.34150       -0.01770        0.40220
C          3.19390       -1.22260        0.61270
C          4.44030       -1.04890        1.21780
C          5.28890       -2.13070        1.43650
C          4.92700       -3.44300        1.05750
C          5.85740       -4.59280        1.33240
C          5.47919       -5.85744        1.57365
C          3.65120       -3.63180        0.43770
C          3.12570       -4.97600       -0.04430
C          1.74177       -4.83472       -0.67423
C          2.80930       -2.51880        0.23070
H          1.69198        1.61232       -0.74554
H          2.99568        0.56552       -1.54224
H          1.65628        0.26588        1.19714
H          4.76580       -0.06150        1.52410
H          6.22950       -1.91100        1.91350
H          6.92517       -4.44737        1.33753
H          4.45063       -6.18516        1.60293
H          6.23836       -6.61272        1.75373
H          3.04135       -5.73444        0.74758
H          3.84172       -5.39793       -0.78299
H          1.02163       -4.46153        0.08588
H          1.39357       -5.82665       -1.03244
H          1.75726       -4.13424       -1.53462
H          1.85420       -2.68350       -0.24490
26

C          2.35236        0.75307       -0.69364
C          2.34150       -0.01770        0.40220
C          3.19390       -1.22260        0.61270
C          4.44030       -1.04890        1.21780
C          5.28890       -2.13070        1.43650
C          4.92700       -3.44300        1.05750
C          5.85740       -4.59280        1.33240
C          5.85919       -5.34137        2.44604
C          3.65120       -3.63180        0.43770
C          3.12570       -4.97600       -0.04430
C          2.34096       -5.68894        1.05475
C          2.80930       -2.51880        0.23070
H          1.69198        1.61232       -0.74554
H          2.99568        0.56552       -1.54224
H          1.65628        0.26588        1.19714
H          4.76580       -0.06150        1.52410
H          6.22950       -1.91100        1.91350
H          6.59536       -4.88933        0.60521
H          5.18664       -5.18931        3.27715
H          6.57328       -6.15437        2.53728
H          3.91023       -5.66998       -0.37947
H          2.47749       -4.81097       -0.93254
H          3.01045       -5.89588        1.91766
H          1.95517       -6.65602        0.66823
H          1.48111       -5.07870        1.40034
H          1.85420       -2.68350       -0.24490
26

C          1.43896        0.45075        1.27458
C          2.34150       -0.01770        0.40220
C          3.19390       -1.22260        0.61270
C          4.44030       -1.04890        1.21780
C          5.28890       -2.13070        1.43650
C          4.92700       -3.44300        1.05750
C          5.85740       -4.59280        1.33240
C          7.05505       -4.49710        1.92992
C          3.65120       -3.63180        0.43770
C          3.12570       -4.97600       -0.04430
C          3.51391       -5.23181       -1.49891
C          2.80930       -2.51880        0.23070
H          0.86610        1.33689        1.02223
H          1.24381       -0.01466        2.23086
H          2.45338        0.52779       -0.53151
H          4.76580       -0.06150        1.52410
H          6.22950       -1.91100        1.91350
H          5.58524       -5.59860        1.05741
H          7.48554       -3.56872        2.27485
H          7.64366       -5.39640        2.08489
H          2.03255       -5.07856        0.01834
H          3.53591       -5.77730        0.60841
H          3.05649       -4.45539       -2.14975
H          3.13345       -6.22598       -1.81568
H          4.61516       -5.21599       -1.63368
H          1.85420       -2.68350       -0.24490
26

C          2.35236        0.75307       -0.69364
C          2.34150       -0.01770        0.40220
C          3.19390       -1.22260        0.61270
C          4.44030       -1.04890        1.21780
C          5.28890       -2.13070        1.43650
C          4.92700       -3.44300        1.05750
C          5.85740       -4.59280        1.33240
C          7.05505       -4.49710        1.92992
C          3.65120       -3.63180        0.43770
C          3.12570       -4.97600       -0.04430
C          3.01068       -5.97024        1.10908
C          2.80930       -2.51880        0.23070
H          1.69198        1.61232       -0.74554
H          2.99568        0.56552       -1.54224
H          1.65628        0.26588        1.19714
H          4.76580       -0.06150        1.52410
H          6.22950       -1.91100        1.91350
H          5.58524       -5.59860        1.05741
H          7.48554       -3.56872        2.27485
H          7.64366       -5.39640        2.08489
H          3.74953       -5.45079       -0.81555
H          2.13210       -4.82397       -0.51972
H          4.01657       -6.15539        1.54446
H          2.60784       -6.93350        0.73049
H          2.33468       -5.59299        1.90399
H          1.85420       -2.68350       -0.24490
26

C          1.12084       -0.02320       -0.15010
C          2.34150       -0.01770        0.40220
C          3.19390       -1.22260        0.61270
C          4.44030       -1.04890        1.21780
C          5.28890       -2.13070        1.43650
C          4.92700       -3.44300        1.05750
C          5.85740       -4.59280        1.33240
C          5.62637       -5.87387        1.00677
C          3.65120       -3.63180        0.43770
C          3.12570       -4.97600       -0.04430
C          3.01068       -5.97024        1.10908
C          2.80930       -2.51880        0.23070
H          0.58337        0.91275       -0.26067
H          0.63445       -0.92298       -0.50079
H          2.73556        0.94548        0.71668
H          4.76580       -0.06150        1.52410
H          6.22950       -1.91100        1.91350
H          6.80514       -4.42947        1.81864
H          4.73090       -6.21925        0.51176
H          6.37263       -6.62507        1.24768
H          3.74953       -5.45079       -0.81555
H          2.13210       -4.82397       -0.51972
H          4.01657       -6.15539        1.54446
H          2.60784       -6.93350        0.73049
H          2.33468       -5.59299        1.90399
H          1.85420       -2.68350       -0.24490
26

C          1.43896        0.45075        1.27458
C          2.34150       -0.01770        0.40220
C          3.19390       -1.22260        0.61270
C          4.44030       -1.04890        1.21780
C          5.28890       -2.13070        1.43650
C          4.92700       -3.44300        1.05750
C          5.85740       -4.59280        1.33240
C          6.80750       -5.04000        0.49701
C          3.65120       -3.63180        0.43770
C          3.12570       -4.97600       -0.04430
C          4.05204       -5.58775       -1.09296
C          2.80930       -2.51880        0.23070
H          0.86610        1.33689        1.02223
H          1.24381       -0.01466        2.23086
H          2.45338        0.52779       -0.53151
H          4.76580       -0.06150        1.52410
H          6.22950       -1.91100        1.91350
H          5.80746       -5.12999        2.26527
H          7.00148       -4.61862       -0.47819
H          7.42982       -5.87643        0.80086
H          2.12176       -4.93083       -0.49094
H          3.03087       -5.65869        0.82824
H          4.09964       -4.92310       -1.98270
H          3.65307       -6.57423       -1.41098
H          5.07683       -5.73365       -0.69335
H          1.85420       -2.68350       -0.24490
26

C          1.43896        0.45075        1.27458
C          2.34150       -0.01770        0.40220
C          3.19390       -1.22260        0.61270
C          4.44030       -1.04890        1.21780
C          5.28890       -2.13070        1.43650
C          4.92700       -3.44300        1.05750
C          5.85740       -4.59280        1.33240
C          6.80750       -5.04000        0.49701
C          3.65120       -3.63180        0.43770
C          3.12570       -4.97600       -0.04430
C          1.82673       -5.34881        0.66684
C          2.80930       -2.51880        0.23070
H          0.86610        1.33689        1.02223
H          1.24381       -0.01466        2.23086
H          2.45338        0.52779       -0.53151
H          4.76580       -0.06150        1.52410
H          6.22950       -1.91100        1.91350
H          5.80746       -5.12999        2.26527
H          7.00148       -4.61862       -0.47819
H          7.42982       -5.87643        0.80086
H          3.82497       -5.81116        0.10719
H          2.96010       -4.92431       -1.14261
H          2.01363       -5.44894        1.75803
H          1.45864       -6.32324        0.28151
H          1.03995       -4.58402        0.50178
H          1.85420       -2.68350       -0.24490
26

C          2.35236        0.75307       -0.69364
C          2.34150       -0.01770        0.40220
C          3.19390       -1.22260        0.61270
C          4.44030       -1.04890        1.21780
C          5.28890       -2.13070        1.43650
C          4.92700       -3.44300        1.05750
C          5.85740       -4.59280        1.33240
C          6.80750       -5.04000        0.49701
C          3.65120       -3.63180        0.43770
C          3.12570       -4.97600       -0.04430
C          1.82673       -5.34881        0.66684
C          2.80930       -2.51880        0.23070
H          1.69198        1.61232       -0.74554
H          2.99568        0.56552       -1.54224
H          1.65628        0.26588        1.19714
H          4.76580       -0.06150        1.52410
H          6.22950       -1.91100        1.91350
H          5.80746       -5.12999        2.26527
H          7.00148       -4.61862       -0.47819
H          7.42982       -5.87643        0.80086
H          3.82497       -5.81116        0.10719
H          2.96010       -4.92431       -1.14261
H          2.01363       -5.44894        1.75803
H          1.45864       -6.32324        0.28151
H          1.03995       -4.58402        0.50178
H          1.85420       -2.68350       -0.24490
