
 OpenBabel02032211083D

 26 26  0  0  0  0  0  0  0  0999 V2000
    1.1194    0.0709    0.0114 C   0  0  0  0  0  0  0  0  0  0  0  0
    2.4503    0.0413    0.1476 C   0  0  0  0  0  0  0  0  0  0  0  0
    3.2232   -1.1522    0.5166 C   0  0  0  0  0  0  0  0  0  0  0  0
    4.4035   -1.0015    1.2424 C   0  0  0  0  0  0  0  0  0  0  0  0
    5.1733   -2.1174    1.5854 C   0  0  0  0  0  0  0  0  0  0  0  0
    4.8120   -3.4162    1.1855 C   0  0  0  0  0  0  0  0  0  0  0  0
    5.6358   -4.5650    1.6104 C   0  0  0  0  0  0  0  0  0  0  0  0
    6.9582   -4.5398    1.8415 C   0  0  0  0  0  0  0  0  0  0  0  0
    3.6316   -3.5790    0.4262 C   0  0  0  0  0  0  0  0  0  0  0  0
    3.1634   -4.9112   -0.1268 C   0  0  0  0  0  0  0  0  0  0  0  0
    2.2027   -5.6637    0.7816 C   0  0  0  0  0  0  0  0  0  0  0  0
    2.8526   -2.4398    0.1134 C   0  0  0  0  0  0  0  0  0  0  0  0
    0.6149    0.9938   -0.2618 H   0  0  0  0  0  0  0  0  0  0  0  0
    0.4949   -0.8007    0.1781 H   0  0  0  0  0  0  0  0  0  0  0  0
    3.0208    0.9547   -0.0045 H   0  0  0  0  0  0  0  0  0  0  0  0
    4.7340   -0.0162    1.5641 H   0  0  0  0  0  0  0  0  0  0  0  0
    6.0696   -1.9501    2.1802 H   0  0  0  0  0  0  0  0  0  0  0  0
    5.1084   -5.5057    1.7556 H   0  0  0  0  0  0  0  0  0  0  0  0
    7.5600   -3.6503    1.7121 H   0  0  0  0  0  0  0  0  0  0  0  0
    7.4705   -5.4392    2.1683 H   0  0  0  0  0  0  0  0  0  0  0  0
    4.0255   -5.5448   -0.3679 H   0  0  0  0  0  0  0  0  0  0  0  0
    2.6653   -4.7371   -1.0895 H   0  0  0  0  0  0  0  0  0  0  0  0
    2.6680   -5.9281    1.7360 H   0  0  0  0  0  0  0  0  0  0  0  0
    1.8850   -6.5936    0.2950 H   0  0  0  0  0  0  0  0  0  0  0  0
    1.3029   -5.0762    0.9942 H   0  0  0  0  0  0  0  0  0  0  0  0
    1.9559   -2.5720   -0.4900 H   0  0  0  0  0  0  0  0  0  0  0  0
  1  2  2  0  0  0  0
  1 13  1  0  0  0  0
  1 14  1  0  0  0  0
  2  3  1  0  0  0  0
  2 15  1  0  0  0  0
  3  4  1  0  0  0  0
  3 12  2  0  0  0  0
  4  5  2  0  0  0  0
  4 16  1  0  0  0  0
  5  6  1  0  0  0  0
  5 17  1  0  0  0  0
  6  7  1  0  0  0  0
  6  9  2  0  0  0  0
  7  8  2  0  0  0  0
  7 18  1  0  0  0  0
  8 19  1  0  0  0  0
  8 20  1  0  0  0  0
  9 10  1  0  0  0  0
  9 12  1  0  0  0  0
 10 11  1  0  0  0  0
 10 21  1  0  0  0  0
 10 22  1  0  0  0  0
 11 23  1  0  0  0  0
 11 24  1  0  0  0  0
 11 25  1  0  0  0  0
 12 26  1  0  0  0  0
M  END
