
 OpenBabel02032211083D

 26 26  0  0  0  0  0  0  0  0999 V2000
    1.1326   -0.0193   -0.1754 C   0  0  0  0  0  0  0  0  0  0  0  0
    2.3415   -0.0177    0.4022 C   0  0  0  0  0  0  0  0  0  0  0  0
    3.1939   -1.2226    0.6127 C   0  0  0  0  0  0  0  0  0  0  0  0
    4.4403   -1.0489    1.2178 C   0  0  0  0  0  0  0  0  0  0  0  0
    5.2889   -2.1307    1.4365 C   0  0  0  0  0  0  0  0  0  0  0  0
    4.9270   -3.4430    1.0575 C   0  0  0  0  0  0  0  0  0  0  0  0
    5.8574   -4.5928    1.3324 C   0  0  0  0  0  0  0  0  0  0  0  0
    7.0728   -4.4918    1.8920 C   0  0  0  0  0  0  0  0  0  0  0  0
    3.6512   -3.6318    0.4377 C   0  0  0  0  0  0  0  0  0  0  0  0
    3.1257   -4.9760   -0.0443 C   0  0  0  0  0  0  0  0  0  0  0  0
    1.9586   -5.4541    0.8167 C   0  0  0  0  0  0  0  0  0  0  0  0
    2.8093   -2.5188    0.2307 C   0  0  0  0  0  0  0  0  0  0  0  0
    0.5940    0.9163   -0.2834 H   0  0  0  0  0  0  0  0  0  0  0  0
    0.6570   -0.9155   -0.5493 H   0  0  0  0  0  0  0  0  0  0  0  0
    2.7253    0.9421    0.7389 H   0  0  0  0  0  0  0  0  0  0  0  0
    4.7658   -0.0615    1.5241 H   0  0  0  0  0  0  0  0  0  0  0  0
    6.2295   -1.9110    1.9135 H   0  0  0  0  0  0  0  0  0  0  0  0
    5.5705   -5.6028    1.0897 H   0  0  0  0  0  0  0  0  0  0  0  0
    7.5195   -3.5587    2.2018 H   0  0  0  0  0  0  0  0  0  0  0  0
    7.6597   -5.3915    2.0511 H   0  0  0  0  0  0  0  0  0  0  0  0
    3.8772   -5.7789   -0.0397 H   0  0  0  0  0  0  0  0  0  0  0  0
    2.8047   -4.8773   -1.1043 H   0  0  0  0  0  0  0  0  0  0  0  0
    2.3019   -5.5996    1.8639 H   0  0  0  0  0  0  0  0  0  0  0  0
    1.5853   -6.4260    0.4300 H   0  0  0  0  0  0  0  0  0  0  0  0
    1.1219   -4.7254    0.8067 H   0  0  0  0  0  0  0  0  0  0  0  0
    1.8542   -2.6835   -0.2449 H   0  0  0  0  0  0  0  0  0  0  0  0
  1  2  2  0  0  0  0
  1 13  1  0  0  0  0
  1 14  1  0  0  0  0
  2  3  1  0  0  0  0
  2 15  1  0  0  0  0
  3  4  1  0  0  0  0
  3 12  2  0  0  0  0
  4  5  2  0  0  0  0
  4 16  1  0  0  0  0
  5  6  1  0  0  0  0
  5 17  1  0  0  0  0
  6  7  1  0  0  0  0
  6  9  2  0  0  0  0
  7  8  2  0  0  0  0
  7 18  1  0  0  0  0
  8 19  1  0  0  0  0
  8 20  1  0  0  0  0
  9 10  1  0  0  0  0
  9 12  1  0  0  0  0
 10 11  1  0  0  0  0
 10 21  1  0  0  0  0
 10 22  1  0  0  0  0
 11 23  1  0  0  0  0
 11 24  1  0  0  0  0
 11 25  1  0  0  0  0
 12 26  1  0  0  0  0
M  END
