22

C          1.02594       -0.24901       -0.24942
C          2.21370        0.32720       -0.01930
C          2.98670        0.22320        1.25140
C          4.20580        0.89840        1.33510
C          4.96690        0.85260        2.49820
C          4.54350        0.13020        3.62790
C          5.43620        0.26990        4.82160
C          5.63400       -0.65667        5.76779
C          3.31770       -0.61300        3.54740
N          2.84930       -1.49290        4.58030
O          3.50880       -2.42396        4.92631
O          1.58326       -1.46521        4.94274
C          2.55670       -0.53040        2.35820
H          0.54333       -0.10779       -1.21125
H          0.50825       -0.85376        0.48240
H          2.63746        0.91974       -0.82604
H          4.56900        1.48150        0.49710
H          5.89130        1.41840        2.52220
H          5.90285        1.23614        4.99610
H          5.14594       -1.62201        5.75772
H          6.27200       -0.42756        6.61544
H          1.63550       -1.08600        2.29480
22

C          2.32557       -0.50804       -1.06122
C          2.21370        0.32720       -0.01930
C          2.98670        0.22320        1.25140
C          4.20580        0.89840        1.33510
C          4.96690        0.85260        2.49820
C          4.54350        0.13020        3.62790
C          5.43620        0.26990        4.82160
C          5.63400       -0.65667        5.76779
C          3.31770       -0.61300        3.54740
N          2.84930       -1.49290        4.58030
O          2.62019       -1.07444        5.67297
O          2.95111       -2.79731        4.42824
C          2.55670       -0.53040        2.35820
H          1.71202       -0.34578       -1.94167
H          3.00045       -1.35282       -1.07452
H          1.49676        1.13868       -0.11421
H          4.56900        1.48150        0.49710
H          5.89130        1.41840        2.52220
H          5.90285        1.23614        4.99610
H          5.14594       -1.62201        5.75772
H          6.27200       -0.42756        6.61544
H          1.63550       -1.08600        2.29480
22

C          2.74830        0.50027       -1.23586
C          2.21370        0.32720       -0.01930
C          2.98670        0.22320        1.25140
C          4.20580        0.89840        1.33510
C          4.96690        0.85260        2.49820
C          4.54350        0.13020        3.62790
C          5.43620        0.26990        4.82160
C          5.32397        1.19521        5.78292
C          3.31770       -0.61300        3.54740
N          2.84930       -1.49290        4.58030
O          2.62019       -1.07444        5.67297
O          2.95111       -2.79731        4.42824
C          2.55670       -0.53040        2.35820
H          2.09515        0.56019       -2.10059
H          3.81247        0.58040       -1.41027
H          1.13071        0.25242        0.03593
H          4.56900        1.48150        0.49710
H          5.89130        1.41840        2.52220
H          6.30994       -0.37430        4.88013
H          4.55418        1.95523        5.78161
H          6.05856        1.22868        6.58123
H          1.63550       -1.08600        2.29480
22

C          0.87820        0.27518       -0.11665
C          2.21370        0.32720       -0.01930
C          2.98670        0.22320        1.25140
C          4.20580        0.89840        1.33510
C          4.96690        0.85260        2.49820
C          4.54350        0.13020        3.62790
C          5.43620        0.26990        4.82160
C          6.75651        0.49116        4.79400
C          3.31770       -0.61300        3.54740
N          2.84930       -1.49290        4.58030
O          2.62019       -1.07444        5.67297
O          2.95111       -2.79731        4.42824
C          2.55670       -0.53040        2.35820
H          0.41183        0.36457       -1.09259
H          0.22556        0.15190        0.73667
H          2.76939        0.46128       -0.94382
H          4.56900        1.48150        0.49710
H          5.89130        1.41840        2.52220
H          5.00374        0.08994        5.80264
H          7.31826        0.58756        3.87458
H          7.31169        0.53027        5.72582
H          1.63550       -1.08600        2.29480
22

C          2.32557       -0.50804       -1.06122
C          2.21370        0.32720       -0.01930
C          2.98670        0.22320        1.25140
C          4.20580        0.89840        1.33510
C          4.96690        0.85260        2.49820
C          4.54350        0.13020        3.62790
C          5.43620        0.26990        4.82160
C          5.63400       -0.65667        5.76779
C          3.31770       -0.61300        3.54740
N          2.84930       -1.49290        4.58030
O          3.50880       -2.42396        4.92631
O          1.58326       -1.46521        4.94274
C          2.55670       -0.53040        2.35820
H          1.71202       -0.34578       -1.94167
H          3.00045       -1.35282       -1.07452
H          1.49676        1.13868       -0.11421
H          4.56900        1.48150        0.49710
H          5.89130        1.41840        2.52220
H          5.90285        1.23614        4.99610
H          5.14594       -1.62201        5.75772
H          6.27200       -0.42756        6.61544
H          1.63550       -1.08600        2.29480
22

C          0.87820        0.27518       -0.11665
C          2.21370        0.32720       -0.01930
C          2.98670        0.22320        1.25140
C          4.20580        0.89840        1.33510
C          4.96690        0.85260        2.49820
C          4.54350        0.13020        3.62790
C          5.43620        0.26990        4.82160
C          6.47765       -0.51684        5.12051
C          3.31770       -0.61300        3.54740
N          2.84930       -1.49290        4.58030
O          2.62019       -1.07444        5.67297
O          2.95111       -2.79731        4.42824
C          2.55670       -0.53040        2.35820
H          0.41183        0.36457       -1.09259
H          0.22556        0.15190        0.73667
H          2.76939        0.46128       -0.94382
H          4.56900        1.48150        0.49710
H          5.89130        1.41840        2.52220
H          5.17418        1.01692        5.56668
H          6.77587       -1.35697        4.50777
H          7.02884       -0.34784        6.04012
H          1.63550       -1.08600        2.29480
22

C          1.29200        1.26221       -0.28759
C          2.21370        0.32720       -0.01930
C          2.98670        0.22320        1.25140
C          4.20580        0.89840        1.33510
C          4.96690        0.85260        2.49820
C          4.54350        0.13020        3.62790
C          5.43620        0.26990        4.82160
C          5.32397        1.19521        5.78292
C          3.31770       -0.61300        3.54740
N          2.84930       -1.49290        4.58030
O          3.50880       -2.42396        4.92631
O          1.58326       -1.46521        4.94274
C          2.55670       -0.53040        2.35820
H          0.78687        1.25141       -1.24815
H          1.02042        2.04430        0.40802
H          2.41107       -0.40626       -0.79685
H          4.56900        1.48150        0.49710
H          5.89130        1.41840        2.52220
H          6.30994       -0.37430        4.88013
H          4.55418        1.95523        5.78161
H          6.05856        1.22868        6.58123
H          1.63550       -1.08600        2.29480
22

C          1.40050       -0.61939       -0.50759
C          2.21370        0.32720       -0.01930
C          2.98670        0.22320        1.25140
C          4.20580        0.89840        1.33510
C          4.96690        0.85260        2.49820
C          4.54350        0.13020        3.62790
C          5.43620        0.26990        4.82160
C          6.47765       -0.51684        5.12051
C          3.31770       -0.61300        3.54740
N          2.84930       -1.49290        4.58030
O          3.48320       -1.64457        5.57865
O          1.88976       -2.35742        4.32168
C          2.55670       -0.53040        2.35820
H          0.87934       -0.44255       -1.44305
H          1.22614       -1.56479       -0.01251
H          2.30736        1.24199       -0.59886
H          4.56900        1.48150        0.49710
H          5.89130        1.41840        2.52220
H          5.17418        1.01692        5.56668
H          6.77587       -1.35697        4.50777
H          7.02884       -0.34784        6.04012
H          1.63550       -1.08600        2.29480
22

C          1.29200        1.26221       -0.28759
C          2.21370        0.32720       -0.01930
C          2.98670        0.22320        1.25140
C          4.20580        0.89840        1.33510
C          4.96690        0.85260        2.49820
C          4.54350        0.13020        3.62790
C          5.43620        0.26990        4.82160
C          5.32397        1.19521        5.78292
C          3.31770       -0.61300        3.54740
N          2.84930       -1.49290        4.58030
O          2.62019       -1.07444        5.67297
O          2.95111       -2.79731        4.42824
C          2.55670       -0.53040        2.35820
H          0.78687        1.25141       -1.24815
H          1.02042        2.04430        0.40802
H          2.41107       -0.40626       -0.79685
H          4.56900        1.48150        0.49710
H          5.89130        1.41840        2.52220
H          6.30994       -0.37430        4.88013
H          4.55418        1.95523        5.78161
H          6.05856        1.22868        6.58123
H          1.63550       -1.08600        2.29480
22

C          0.87820        0.27518       -0.11665
C          2.21370        0.32720       -0.01930
C          2.98670        0.22320        1.25140
C          4.20580        0.89840        1.33510
C          4.96690        0.85260        2.49820
C          4.54350        0.13020        3.62790
C          5.43620        0.26990        4.82160
C          5.26034       -0.32470        6.00838
C          3.31770       -0.61300        3.54740
N          2.84930       -1.49290        4.58030
O          2.62019       -1.07444        5.67297
O          2.95111       -2.79731        4.42824
C          2.55670       -0.53040        2.35820
H          0.41183        0.36457       -1.09259
H          0.22556        0.15190        0.73667
H          2.76939        0.46128       -0.94382
H          4.56900        1.48150        0.49710
H          5.89130        1.41840        2.52220
H          6.25442        0.98327        4.76277
H          4.42552       -0.97890        6.22121
H          5.95017       -0.11403        6.81943
H          1.63550       -1.08600        2.29480
