
  xtb     02032211363D
 xtb: 6.4.1 (23d549d)
 28 28  0     0  0            999 V2000
    2.4062   -3.6412   -0.0638 C   0  0  0  0  0  0  0  0  0  0  0  0
    1.1923   -3.1019   -0.0616 C   0  0  0  0  0  0  0  0  0  0  0  0
    0.8317   -1.6914   -0.0129 C   0  0  0  0  0  0  0  0  0  0  0  0
   -0.5119   -1.3436   -0.0547 C   0  0  0  0  0  0  0  0  0  0  0  0
   -0.9730   -0.0298    0.0012 C   0  0  0  0  0  0  0  0  0  0  0  0
   -2.4419    0.1025   -0.0212 C   0  0  0  0  0  0  0  0  0  0  0  0
   -3.1980   -0.8361   -0.1035 O   0  0  0  0  0  0  0  0  0  0  0  0
   -2.9122    1.3714    0.0688 O   0  0  0  0  0  0  0  0  0  0  0  0
   -4.3267    1.4986    0.0485 C   0  0  0  0  0  0  0  0  0  0  0  0
   -0.0468    1.0340    0.0803 C   0  0  0  0  0  0  0  0  0  0  0  0
   -0.4293    2.3333    0.1303 N   0  0  0  0  0  0  0  0  0  0  0  0
    1.3322    0.7130    0.0981 C   0  0  0  0  0  0  0  0  0  0  0  0
    2.3831    1.7353    0.1694 C   0  0  0  0  0  0  0  0  0  0  0  0
    2.4200    2.8633   -0.5278 C   0  0  0  0  0  0  0  0  0  0  0  0
    1.7248   -0.6175    0.0754 C   0  0  0  0  0  0  0  0  0  0  0  0
    3.0536   -0.8512    0.1237 F   0  0  0  0  0  0  0  0  0  0  0  0
    2.5283   -4.7105   -0.1048 H   0  0  0  0  0  0  0  0  0  0  0  0
    3.3127   -3.0655   -0.0279 H   0  0  0  0  0  0  0  0  0  0  0  0
    0.3304   -3.7569   -0.1034 H   0  0  0  0  0  0  0  0  0  0  0  0
   -1.2590   -2.1205   -0.1240 H   0  0  0  0  0  0  0  0  0  0  0  0
   -4.5373    2.5639    0.1011 H   0  0  0  0  0  0  0  0  0  0  0  0
   -4.7666    0.9763    0.9004 H   0  0  0  0  0  0  0  0  0  0  0  0
   -4.7312    1.0712   -0.8707 H   0  0  0  0  0  0  0  0  0  0  0  0
   -1.4016    2.5321    0.2892 H   0  0  0  0  0  0  0  0  0  0  0  0
    0.2589    3.0093    0.4184 H   0  0  0  0  0  0  0  0  0  0  0  0
    3.2116    1.4863    0.8213 H   0  0  0  0  0  0  0  0  0  0  0  0
    1.6636    3.1229   -1.2499 H   0  0  0  0  0  0  0  0  0  0  0  0
    3.2445    3.5494   -0.4324 H   0  0  0  0  0  0  0  0  0  0  0  0
  1  2  2  0  0  0  0
  2  3  1  0  0  0  0
  3  4  4  0  0  0  0
  4  5  4  0  0  0  0
  5  6  1  0  0  0  0
  6  7  2  0  0  0  0
  6  8  1  0  0  0  0
  8  9  1  0  0  0  0
  5 10  4  0  0  0  0
 10 11  4  0  0  0  0
 10 12  4  0  0  0  0
 12 13  1  0  0  0  0
 13 14  2  0  0  0  0
  3 15  4  0  0  0  0
 12 15  4  0  0  0  0
 15 16  1  0  0  0  0
  1 17  1  0  0  0  0
  1 18  1  0  0  0  0
  2 19  1  0  0  0  0
  4 20  1  0  0  0  0
  9 21  1  0  0  0  0
  9 22  1  0  0  0  0
  9 23  1  0  0  0  0
 11 24  1  0  0  0  0
 11 25  1  0  0  0  0
 13 26  1  0  0  0  0
 14 27  1  0  0  0  0
 14 28  1  0  0  0  0
M  END
