19

C          1.04970        0.07100        0.03110
C          2.54680        0.07170       -0.06940
C          3.26300        1.27480       -0.09590
C          4.65270        1.26150       -0.22510
C          5.34290        0.05070       -0.34570
C          6.77800        0.09500       -0.50990
N          7.92490        0.14340       -0.64080
C          4.63200       -1.17180       -0.31140
C          5.30120       -2.51450       -0.45180
C          3.23690       -1.14450       -0.15650
H          0.63760        1.09890       -0.00640
H          0.72810       -0.40280        0.97840
H          0.61860       -0.49450       -0.82110
H          2.74540        2.22420       -0.01720
H          5.18920        2.20310       -0.24240
H          6.38620       -2.44320       -0.65580
H          4.84320       -3.06870       -1.29610
H          5.16420       -3.10060        0.47750
H          2.68410       -2.07540       -0.13200
