
  xtb     02012214013D
 xtb: 6.4.1 (23d549d)
 19 19  0     0  0            999 V2000
    1.0570    0.0767    0.0451 c   0  0  0  0  0  0  0  0  0  0  0  0
    2.5473    0.0761   -0.0957 c   0  0  0  0  0  0  0  0  0  0  0  0
    3.2691    1.2652   -0.1121 c   0  0  0  0  0  0  0  0  0  0  0  0
    4.6419    1.2488   -0.2404 c   0  0  0  0  0  0  0  0  0  0  0  0
    5.3199    0.0336   -0.3542 c   0  0  0  0  0  0  0  0  0  0  0  0
    6.7259    0.0524   -0.4893 c   0  0  0  0  0  0  0  0  0  0  0  0
    7.8672    0.0899   -0.6007 n   0  0  0  0  0  0  0  0  0  0  0  0
    4.6137   -1.1760   -0.3374 c   0  0  0  0  0  0  0  0  0  0  0  0
    5.3176   -2.4929   -0.4493 c   0  0  0  0  0  0  0  0  0  0  0  0
    3.2345   -1.1265   -0.2082 c   0  0  0  0  0  0  0  0  0  0  0  0
    0.6639    1.0900    0.0389 h   0  0  0  0  0  0  0  0  0  0  0  0
    0.7672   -0.4020    0.9801 h   0  0  0  0  0  0  0  0  0  0  0  0
    0.5980   -0.4825   -0.7690 h   0  0  0  0  0  0  0  0  0  0  0  0
    2.7508    2.2088   -0.0249 h   0  0  0  0  0  0  0  0  0  0  0  0
    5.2048    2.1707   -0.2553 h   0  0  0  0  0  0  0  0  0  0  0  0
    6.3821   -2.3569   -0.6227 h   0  0  0  0  0  0  0  0  0  0  0  0
    4.8993   -3.0769   -1.2681 h   0  0  0  0  0  0  0  0  0  0  0  0
    5.1859   -3.0663    0.4683 h   0  0  0  0  0  0  0  0  0  0  0  0
    2.6787   -2.0540   -0.1954 h   0  0  0  0  0  0  0  0  0  0  0  0
  1  2  1  0  0  0  0
  2  3  4  0  0  0  0
  3  4  4  0  0  0  0
  4  5  4  0  0  0  0
  5  6  1  0  0  0  0
  6  7  3  0  0  0  0
  5  8  4  0  0  0  0
  8  9  1  0  0  0  0
  2 10  4  0  0  0  0
  8 10  4  0  0  0  0
  1 11  1  0  0  0  0
  1 12  1  0  0  0  0
  1 13  1  0  0  0  0
  3 14  1  0  0  0  0
  4 15  1  0  0  0  0
  9 16  1  0  0  0  0
  9 17  1  0  0  0  0
  9 18  1  0  0  0  0
 10 19  1  0  0  0  0
M  END
