36

F          2.76034       -3.39253       -0.35547
C          3.22150       -2.14250       -0.08846
F          2.36441       -1.10494       -0.25251
C          4.49844       -1.99403        0.30680
C          5.20448       -0.71913        0.64185
C          6.25261       -0.61392        1.58285
C          6.87700        0.62210        1.85090
N          7.95660        0.71750        2.81860
C          8.15380       -0.05560        3.92970
C          9.29590        0.33550        4.60400
C          9.72690       -0.28700        5.77480
C          8.95280       -1.34210        6.28030
C          7.77380       -1.74040        5.61960
C          7.35920       -1.09700        4.43950
C          9.00120        1.59960        2.81590
C          9.83100        1.38310        3.90050
C         10.97560        2.14430        4.13380
C         11.28840        3.15750        3.21530
C         10.46710        3.37920        2.09230
C          9.31730        2.59800        1.87870
C          6.43148        1.76105        1.15682
C          5.40091        1.66881        0.22389
C          4.79442        0.44154       -0.03380
H          5.08185       -2.90859        0.37973
H          6.61993       -1.48342        2.08842
H         10.62730        0.03180        6.28360
H          9.25810       -1.84570        7.18810
H          7.17840       -2.54690        6.02790
H          6.44030       -1.41370        3.97400
H         11.60910        1.96100        4.99190
H         12.17100        3.76560        3.36510
H         10.72700        4.15510        1.38380
H          8.72500        2.78080        0.99710
H          6.85705        2.73447        1.34885
H          5.06596        2.55573       -0.29891
H          3.99493        0.40098       -0.76387
36

F          4.05436       -3.99235       -0.79996
C          4.82057       -2.87980       -0.65263
F          5.88542       -2.73262       -1.47874
C          4.49844       -1.99403        0.30680
C          5.20448       -0.71913        0.64185
C          6.25261       -0.61392        1.58285
C          6.87700        0.62210        1.85090
N          7.95660        0.71750        2.81860
C          8.15380       -0.05560        3.92970
C          9.29590        0.33550        4.60400
C          9.72690       -0.28700        5.77480
C          8.95280       -1.34210        6.28030
C          7.77380       -1.74040        5.61960
C          7.35920       -1.09700        4.43950
C          9.00120        1.59960        2.81590
C          9.83100        1.38310        3.90050
C         10.97560        2.14430        4.13380
C         11.28840        3.15750        3.21530
C         10.46710        3.37920        2.09230
C          9.31730        2.59800        1.87870
C          6.43148        1.76105        1.15682
C          5.40091        1.66881        0.22389
C          4.79442        0.44154       -0.03380
H          3.62986       -2.24411        0.91107
H          6.61993       -1.48342        2.08842
H         10.62730        0.03180        6.28360
H          9.25810       -1.84570        7.18810
H          7.17840       -2.54690        6.02790
H          6.44030       -1.41370        3.97400
H         11.60910        1.96100        4.99190
H         12.17100        3.76560        3.36510
H         10.72700        4.15510        1.38380
H          8.72500        2.78080        0.99710
H          6.85705        2.73447        1.34885
H          5.06596        2.55573       -0.29891
H          3.99493        0.40098       -0.76387
36

F          6.15610        2.59676       -3.79432
C          5.96499        2.46055       -2.45586
F          5.58010        3.55744       -1.75821
C          6.17995        1.25957       -1.88991
C          6.03737        0.89565       -0.44654
C          7.08036        0.98119        0.50213
C          6.87700        0.62210        1.85090
N          7.95660        0.71750        2.81860
C          8.15380       -0.05560        3.92970
C          9.29590        0.33550        4.60400
C          9.72690       -0.28700        5.77480
C          8.95280       -1.34210        6.28030
C          7.77380       -1.74040        5.61960
C          7.35920       -1.09700        4.43950
C          9.00120        1.59960        2.81590
C          9.83100        1.38310        3.90050
C         10.97560        2.14430        4.13380
C         11.28840        3.15750        3.21530
C         10.46710        3.37920        2.09230
C          9.31730        2.59800        1.87870
C          5.60252        0.17152        2.23834
C          4.56520        0.08633        1.31224
C          4.77831        0.44676       -0.01633
H          6.50379        0.46924       -2.56269
H          8.04283        1.35689        0.22098
H         10.62730        0.03180        6.28360
H          9.25810       -1.84570        7.18810
H          7.17840       -2.54690        6.02790
H          6.44030       -1.41370        3.97400
H         11.60910        1.96100        4.99190
H         12.17100        3.76560        3.36510
H         10.72700        4.15510        1.38380
H          8.72500        2.78080        0.99710
H          5.40541       -0.14326        3.25205
H          3.59081       -0.26697        1.62509
H          3.95292        0.36902       -0.71384
36

F          1.42810       -1.94520        1.92817
C          2.71739       -1.69794        1.57724
F          3.48321       -2.75229        1.20319
C          3.17244       -0.43353        1.63229
C          4.54645        0.05393        1.29976
C          5.60237        0.15400        2.23257
C          6.87700        0.62210        1.85090
N          7.95660        0.71750        2.81860
C          8.15380       -0.05560        3.92970
C          9.29590        0.33550        4.60400
C          9.72690       -0.28700        5.77480
C          8.95280       -1.34210        6.28030
C          7.77380       -1.74040        5.61960
C          7.35920       -1.09700        4.43950
C          9.00120        1.59960        2.81590
C          9.83100        1.38310        3.90050
C         10.97560        2.14430        4.13380
C         11.28840        3.15750        3.21530
C         10.46710        3.37920        2.09230
C          9.31730        2.59800        1.87870
C          7.07963        0.99229        0.50951
C          6.04666        0.89457       -0.42020
C          4.79315        0.42797       -0.03105
H          2.45728        0.31387        1.96706
H          5.46440       -0.15959        3.24706
H         10.62730        0.03180        6.28360
H          9.25810       -1.84570        7.18810
H          7.17840       -2.54690        6.02790
H          6.44030       -1.41370        3.97400
H         11.60910        1.96100        4.99190
H         12.17100        3.76560        3.36510
H         10.72700        4.15510        1.38380
H          8.72500        2.78080        0.99710
H          8.02825        1.38466        0.17529
H          6.21709        1.18795       -1.44831
H          4.00911        0.36388       -0.77603
36

F          4.61009        4.39040       -2.27011
C          5.23505        3.30997       -1.73285
F          6.23496        2.73857       -2.44819
C          4.82535        2.85373       -0.53583
C          5.36514        1.68539        0.22556
C          6.41609        1.76568        1.16587
C          6.87700        0.62210        1.85090
N          7.95660        0.71750        2.81860
C          8.15380       -0.05560        3.92970
C          9.29590        0.33550        4.60400
C          9.72690       -0.28700        5.77480
C          8.95280       -1.34210        6.28030
C          7.77380       -1.74040        5.61960
C          7.35920       -1.09700        4.43950
C          9.00120        1.59960        2.81590
C          9.83100        1.38310        3.90050
C         10.97560        2.14430        4.13380
C         11.28840        3.15750        3.21530
C         10.46710        3.37920        2.09230
C          9.31730        2.59800        1.87870
C          6.26465       -0.61381        1.57707
C          5.22488       -0.70461        0.65426
C          4.77700        0.43290       -0.01352
H          4.00026        3.39472       -0.07902
H          6.86238        2.70928        1.40460
H         10.62730        0.03180        6.28360
H          9.25810       -1.84570        7.18810
H          7.17840       -2.54690        6.02790
H          6.44030       -1.41370        3.97400
H         11.60910        1.96100        4.99190
H         12.17100        3.76560        3.36510
H         10.72700        4.15510        1.38380
H          8.72500        2.78080        0.99710
H          6.60188       -1.52219        2.05317
H          4.76677       -1.66425        0.45090
H          3.96740        0.33112       -0.72627
36

F          2.58452       -3.46847        0.78820
C          3.68420       -2.69347        0.59678
F          4.70935       -3.21786       -0.11884
C          3.70942       -1.46097        1.13450
C          4.81305       -0.45528        1.05253
C          5.86546       -0.35115        1.98886
C          6.87700        0.62210        1.85090
N          7.95660        0.71750        2.81860
C          8.15380       -0.05560        3.92970
C          9.29590        0.33550        4.60400
C          9.72690       -0.28700        5.77480
C          8.95280       -1.34210        6.28030
C          7.77380       -1.74040        5.61960
C          7.35920       -1.09700        4.43950
C          9.00120        1.59960        2.81590
C          9.83100        1.38310        3.90050
C         10.97560        2.14430        4.13380
C         11.28840        3.15750        3.21530
C         10.46710        3.37920        2.09230
C          9.31730        2.59800        1.87870
C          6.81768        1.49744        0.75194
C          5.78642        1.40193       -0.17989
C          4.79501        0.43437       -0.03375
H          2.82731       -1.17229        1.70076
H          5.93556       -1.03726        2.80794
H         10.62730        0.03180        6.28360
H          9.25810       -1.84570        7.18810
H          7.17840       -2.54690        6.02790
H          6.44030       -1.41370        3.97400
H         11.60910        1.96100        4.99190
H         12.17100        3.76560        3.36510
H         10.72700        4.15510        1.38380
H          8.72500        2.78080        0.99710
H          7.55141        2.27818        0.61918
H          5.75209        2.08630       -1.01810
H          4.00519        0.38487       -0.77372
36

F          1.63985       -2.35678        1.70876
C          2.52191       -1.32395        1.75085
F          2.14465       -0.19774        2.40458
C          3.70942       -1.46097        1.13450
C          4.81305       -0.45528        1.05253
C          5.86546       -0.35115        1.98886
C          6.87700        0.62210        1.85090
N          7.95660        0.71750        2.81860
C          8.15380       -0.05560        3.92970
C          9.29590        0.33550        4.60400
C          9.72690       -0.28700        5.77480
C          8.95280       -1.34210        6.28030
C          7.77380       -1.74040        5.61960
C          7.35920       -1.09700        4.43950
C          9.00120        1.59960        2.81590
C          9.83100        1.38310        3.90050
C         10.97560        2.14430        4.13380
C         11.28840        3.15750        3.21530
C         10.46710        3.37920        2.09230
C          9.31730        2.59800        1.87870
C          6.81768        1.49744        0.75194
C          5.78642        1.40193       -0.17989
C          4.79501        0.43437       -0.03375
H          3.87618       -2.41044        0.63170
H          5.93556       -1.03726        2.80794
H         10.62730        0.03180        6.28360
H          9.25810       -1.84570        7.18810
H          7.17840       -2.54690        6.02790
H          6.44030       -1.41370        3.97400
H         11.60910        1.96100        4.99190
H         12.17100        3.76560        3.36510
H         10.72700        4.15510        1.38380
H          8.72500        2.78080        0.99710
H          7.55141        2.27818        0.61918
H          5.75209        2.08630       -1.01810
H          4.00519        0.38487       -0.77372
36

F          5.92407        3.00998       -3.59994
C          6.15001        2.08272       -2.63262
F          6.85886        0.97759       -2.97063
C          5.65103        2.29590       -1.40200
C          5.77476        1.40928       -0.20420
C          6.82124        1.49069        0.74099
C          6.87700        0.62210        1.85090
N          7.95660        0.71750        2.81860
C          8.15380       -0.05560        3.92970
C          9.29590        0.33550        4.60400
C          9.72690       -0.28700        5.77480
C          8.95280       -1.34210        6.28030
C          7.77380       -1.74040        5.61960
C          7.35920       -1.09700        4.43950
C          9.00120        1.59960        2.81590
C          9.83100        1.38310        3.90050
C         10.97560        2.14430        4.13380
C         11.28840        3.15750        3.21530
C         10.46710        3.37920        2.09230
C          9.31730        2.59800        1.87870
C          5.86050       -0.33795        2.00076
C          4.82145       -0.42532        1.07681
C          4.77639        0.44040       -0.01358
H          5.08553        3.21538       -1.27211
H          7.57855        2.24239        0.65164
H         10.62730        0.03180        6.28360
H          9.25810       -1.84570        7.18810
H          7.17840       -2.54690        6.02790
H          6.44030       -1.41370        3.97400
H         11.60910        1.96100        4.99190
H         12.17100        3.76560        3.36510
H         10.72700        4.15510        1.38380
H          8.72500        2.78080        0.99710
H          5.87524       -1.04468        2.81676
H          4.04876       -1.17301        1.20351
H          3.95667        0.34798       -0.71596
36

F          3.47320        4.68806       -1.00735
C          3.81645        3.66789       -0.17790
F          3.12607        3.53734        0.98157
C          4.82535        2.85373       -0.53583
C          5.36514        1.68539        0.22556
C          6.41609        1.76568        1.16587
C          6.87700        0.62210        1.85090
N          7.95660        0.71750        2.81860
C          8.15380       -0.05560        3.92970
C          9.29590        0.33550        4.60400
C          9.72690       -0.28700        5.77480
C          8.95280       -1.34210        6.28030
C          7.77380       -1.74040        5.61960
C          7.35920       -1.09700        4.43950
C          9.00120        1.59960        2.81590
C          9.83100        1.38310        3.90050
C         10.97560        2.14430        4.13380
C         11.28840        3.15750        3.21530
C         10.46710        3.37920        2.09230
C          9.31730        2.59800        1.87870
C          6.26465       -0.61381        1.57707
C          5.22488       -0.70461        0.65426
C          4.77700        0.43290       -0.01352
H          5.30592        3.08240       -1.48392
H          6.86238        2.70928        1.40460
H         10.62730        0.03180        6.28360
H          9.25810       -1.84570        7.18810
H          7.17840       -2.54690        6.02790
H          6.44030       -1.41370        3.97400
H         11.60910        1.96100        4.99190
H         12.17100        3.76560        3.36510
H         10.72700        4.15510        1.38380
H          8.72500        2.78080        0.99710
H          6.60188       -1.52219        2.05317
H          4.76677       -1.66425        0.45090
H          3.96740        0.33112       -0.72627
36

F          0.94191       -0.32961        2.28756
C          2.12048        0.29934        2.03867
F          2.16468        1.64465        2.20059
C          3.17244       -0.43353        1.63229
C          4.54645        0.05393        1.29976
C          5.60237        0.15400        2.23257
C          6.87700        0.62210        1.85090
N          7.95660        0.71750        2.81860
C          8.15380       -0.05560        3.92970
C          9.29590        0.33550        4.60400
C          9.72690       -0.28700        5.77480
C          8.95280       -1.34210        6.28030
C          7.77380       -1.74040        5.61960
C          7.35920       -1.09700        4.43950
C          9.00120        1.59960        2.81590
C          9.83100        1.38310        3.90050
C         10.97560        2.14430        4.13380
C         11.28840        3.15750        3.21530
C         10.46710        3.37920        2.09230
C          9.31730        2.59800        1.87870
C          7.07963        0.99229        0.50951
C          6.04666        0.89457       -0.42020
C          4.79315        0.42797       -0.03105
H          2.99431       -1.50079        1.52588
H          5.46440       -0.15959        3.24706
H         10.62730        0.03180        6.28360
H          9.25810       -1.84570        7.18810
H          7.17840       -2.54690        6.02790
H          6.44030       -1.41370        3.97400
H         11.60910        1.96100        4.99190
H         12.17100        3.76560        3.36510
H         10.72700        4.15510        1.38380
H          8.72500        2.78080        0.99710
H          8.02825        1.38466        0.17529
H          6.21709        1.18795       -1.44831
H          4.00911        0.36388       -0.77603
