21

C          2.78435       -0.69002       -0.90213
C          2.45880        0.04370        0.16370
C          3.14190       -0.08170        1.47650
C          2.70980       -0.96310        2.48400
C          3.38670       -1.02590        3.70440
C          4.49510       -0.19910        3.95100
C          5.09360       -0.25470        5.26420
N          5.57870       -0.29410        6.31610
C          4.94380        0.69480        2.93790
C          6.09320        1.64090        3.06010
C          6.01621        2.89902        3.49599
C          4.25430        0.72960        1.71610
H          2.22491       -0.57142       -1.82305
H          3.56519       -1.43876       -0.85878
H          1.61966        0.72990        0.06362
H          1.85750       -1.61310        2.33560
H          3.02950       -1.71290        4.46560
H          7.09024        1.27560        2.82065
H          5.09314        3.34068        3.83452
H          6.92155        3.49130        3.56311
H          4.58080        1.41150        0.93920
21

C          1.47049        0.91029       -0.06562
C          2.45880        0.04370        0.16370
C          3.14190       -0.08170        1.47650
C          2.70980       -0.96310        2.48400
C          3.38670       -1.02590        3.70440
C          4.49510       -0.19910        3.95100
C          5.09360       -0.25470        5.26420
N          5.57870       -0.29410        6.31610
C          4.94380        0.69480        2.93790
C          6.09320        1.64090        3.06010
C          7.35811        1.36664        2.73824
C          4.25430        0.72960        1.71610
H          1.03488        0.97342       -1.05627
H          1.12157        1.58944        0.70198
H          2.80082       -0.56112       -0.67430
H          1.85750       -1.61310        2.33560
H          3.02950       -1.71290        4.46560
H          5.89221        2.65685        3.39524
H          7.65894        0.41885        2.32243
H          8.11079        2.13878        2.84883
H          4.58080        1.41150        0.93920
21

C          1.47049        0.91029       -0.06562
C          2.45880        0.04370        0.16370
C          3.14190       -0.08170        1.47650
C          2.70980       -0.96310        2.48400
C          3.38670       -1.02590        3.70440
C          4.49510       -0.19910        3.95100
C          5.09360       -0.25470        5.26420
N          5.57870       -0.29410        6.31610
C          4.94380        0.69480        2.93790
C          6.09320        1.64090        3.06010
C          6.01621        2.89902        3.49599
C          4.25430        0.72960        1.71610
H          1.03488        0.97342       -1.05627
H          1.12157        1.58944        0.70198
H          2.80082       -0.56112       -0.67430
H          1.85750       -1.61310        2.33560
H          3.02950       -1.71290        4.46560
H          7.09024        1.27560        2.82065
H          5.09314        3.34068        3.83452
H          6.92155        3.49130        3.56311
H          4.58080        1.41150        0.93920
21

C          1.47049        0.91029       -0.06562
C          2.45880        0.04370        0.16370
C          3.14190       -0.08170        1.47650
C          2.70980       -0.96310        2.48400
C          3.38670       -1.02590        3.70440
C          4.49510       -0.19910        3.95100
C          5.09360       -0.25470        5.26420
N          5.57870       -0.29410        6.31610
C          4.94380        0.69480        2.93790
C          6.09320        1.64090        3.06010
C          7.17423        1.45060        3.81770
C          4.25430        0.72960        1.71610
H          1.03488        0.97342       -1.05627
H          1.12157        1.58944        0.70198
H          2.80082       -0.56112       -0.67430
H          1.85750       -1.61310        2.33560
H          3.02950       -1.71290        4.46560
H          6.08509        2.54424        2.45284
H          7.32518        0.55603        4.39965
H          7.95987        2.19740        3.81443
H          4.58080        1.41150        0.93920
21

C          1.47049        0.91029       -0.06562
C          2.45880        0.04370        0.16370
C          3.14190       -0.08170        1.47650
C          2.70980       -0.96310        2.48400
C          3.38670       -1.02590        3.70440
C          4.49510       -0.19910        3.95100
C          5.09360       -0.25470        5.26420
N          5.57870       -0.29410        6.31610
C          4.94380        0.69480        2.93790
C          6.09320        1.64090        3.06010
C          6.51044        2.20862        4.19253
C          4.25430        0.72960        1.71610
H          1.03488        0.97342       -1.05627
H          1.12157        1.58944        0.70198
H          2.80082       -0.56112       -0.67430
H          1.85750       -1.61310        2.33560
H          3.02950       -1.71290        4.46560
H          6.67771        1.86099        2.16860
H          6.05597        2.00136        5.14763
H          7.37160        2.86645        4.16775
H          4.58080        1.41150        0.93920
21

C          2.78435       -0.69002       -0.90213
C          2.45880        0.04370        0.16370
C          3.14190       -0.08170        1.47650
C          2.70980       -0.96310        2.48400
C          3.38670       -1.02590        3.70440
C          4.49510       -0.19910        3.95100
C          5.09360       -0.25470        5.26420
N          5.57870       -0.29410        6.31610
C          4.94380        0.69480        2.93790
C          6.09320        1.64090        3.06010
C          7.35811        1.36664        2.73824
C          4.25430        0.72960        1.71610
H          2.22491       -0.57142       -1.82305
H          3.56519       -1.43876       -0.85878
H          1.61966        0.72990        0.06362
H          1.85750       -1.61310        2.33560
H          3.02950       -1.71290        4.46560
H          5.89221        2.65685        3.39524
H          7.65894        0.41885        2.32243
H          8.11079        2.13878        2.84883
H          4.58080        1.41150        0.93920
21

C          3.09563        0.36813       -0.96303
C          2.45880        0.04370        0.16370
C          3.14190       -0.08170        1.47650
C          2.70980       -0.96310        2.48400
C          3.38670       -1.02590        3.70440
C          4.49510       -0.19910        3.95100
C          5.09360       -0.25470        5.26420
N          5.57870       -0.29410        6.31610
C          4.94380        0.69480        2.93790
C          6.09320        1.64090        3.06010
C          7.17423        1.45060        3.81770
C          4.25430        0.72960        1.71610
H          2.54329        0.41238       -1.89474
H          4.16394        0.54306       -0.98103
H          1.39624       -0.18208        0.09276
H          1.85750       -1.61310        2.33560
H          3.02950       -1.71290        4.46560
H          6.08509        2.54424        2.45284
H          7.32518        0.55603        4.39965
H          7.95987        2.19740        3.81443
H          4.58080        1.41150        0.93920
21

C          2.78435       -0.69002       -0.90213
C          2.45880        0.04370        0.16370
C          3.14190       -0.08170        1.47650
C          2.70980       -0.96310        2.48400
C          3.38670       -1.02590        3.70440
C          4.49510       -0.19910        3.95100
C          5.09360       -0.25470        5.26420
N          5.57870       -0.29410        6.31610
C          4.94380        0.69480        2.93790
C          6.09320        1.64090        3.06010
C          6.19620        2.81684        2.43932
C          4.25430        0.72960        1.71610
H          2.22491       -0.57142       -1.82305
H          3.56519       -1.43876       -0.85878
H          1.61966        0.72990        0.06362
H          1.85750       -1.61310        2.33560
H          3.02950       -1.71290        4.46560
H          6.90143        1.38583        3.74316
H          5.41986        3.20640        1.80116
H          7.06928        3.43392        2.61790
H          4.58080        1.41150        0.93920
21

C          2.78435       -0.69002       -0.90213
C          2.45880        0.04370        0.16370
C          3.14190       -0.08170        1.47650
C          2.70980       -0.96310        2.48400
C          3.38670       -1.02590        3.70440
C          4.49510       -0.19910        3.95100
C          5.09360       -0.25470        5.26420
N          5.57870       -0.29410        6.31610
C          4.94380        0.69480        2.93790
C          6.09320        1.64090        3.06010
C          6.87431        2.04247        2.05640
C          4.25430        0.72960        1.71610
H          2.22491       -0.57142       -1.82305
H          3.56519       -1.43876       -0.85878
H          1.61966        0.72990        0.06362
H          1.85750       -1.61310        2.33560
H          3.02950       -1.71290        4.46560
H          6.29603        2.08382        4.03352
H          6.71644        1.72989        1.03704
H          7.67024        2.75044        2.25695
H          4.58080        1.41150        0.93920
21

C          2.43169        1.17682       -0.54031
C          2.45880        0.04370        0.16370
C          3.14190       -0.08170        1.47650
C          2.70980       -0.96310        2.48400
C          3.38670       -1.02590        3.70440
C          4.49510       -0.19910        3.95100
C          5.09360       -0.25470        5.26420
N          5.57870       -0.29410        6.31610
C          4.94380        0.69480        2.93790
C          6.09320        1.64090        3.06010
C          7.35811        1.36664        2.73824
C          4.25430        0.72960        1.71610
H          1.94193        1.19304       -1.50726
H          2.92909        2.07332       -0.19232
H          1.99312       -0.83447       -0.28014
H          1.85750       -1.61310        2.33560
H          3.02950       -1.71290        4.46560
H          5.89221        2.65685        3.39524
H          7.65894        0.41885        2.32243
H          8.11079        2.13878        2.84883
H          4.58080        1.41150        0.93920
