
 OpenBabel02032211103D

 21 21  0  0  0  0  0  0  0  0999 V2000
    1.1868   -0.3072   -0.0343 C   0  0  0  0  0  0  0  0  0  0  0  0
    2.4588    0.0437    0.1637 C   0  0  0  0  0  0  0  0  0  0  0  0
    3.1419   -0.0817    1.4765 C   0  0  0  0  0  0  0  0  0  0  0  0
    2.7098   -0.9631    2.4840 C   0  0  0  0  0  0  0  0  0  0  0  0
    3.3867   -1.0259    3.7044 C   0  0  0  0  0  0  0  0  0  0  0  0
    4.4951   -0.1991    3.9510 C   0  0  0  0  0  0  0  0  0  0  0  0
    5.0936   -0.2547    5.2642 C   0  0  0  0  0  0  0  0  0  0  0  0
    5.5787   -0.2941    6.3161 N   0  0  0  0  0  0  0  0  0  0  0  0
    4.9438    0.6948    2.9379 C   0  0  0  0  0  0  0  0  0  0  0  0
    6.0932    1.6409    3.0601 C   0  0  0  0  0  0  0  0  0  0  0  0
    7.1453    1.4798    3.8638 C   0  0  0  0  0  0  0  0  0  0  0  0
    4.2543    0.7296    1.7161 C   0  0  0  0  0  0  0  0  0  0  0  0
    0.7383   -0.1609   -1.0103 H   0  0  0  0  0  0  0  0  0  0  0  0
    0.5724   -0.6921    0.7698 H   0  0  0  0  0  0  0  0  0  0  0  0
    2.9945    0.4845   -0.6752 H   0  0  0  0  0  0  0  0  0  0  0  0
    1.8575   -1.6131    2.3356 H   0  0  0  0  0  0  0  0  0  0  0  0
    3.0295   -1.7129    4.4656 H   0  0  0  0  0  0  0  0  0  0  0  0
    6.1118    2.5168    2.4141 H   0  0  0  0  0  0  0  0  0  0  0  0
    7.2704    0.6110    4.4893 H   0  0  0  0  0  0  0  0  0  0  0  0
    7.9346    2.2227    3.8563 H   0  0  0  0  0  0  0  0  0  0  0  0
    4.5808    1.4115    0.9392 H   0  0  0  0  0  0  0  0  0  0  0  0
  1  2  2  0  0  0  0
  1 13  1  0  0  0  0
  1 14  1  0  0  0  0
  2  3  1  0  0  0  0
  2 15  1  0  0  0  0
  3  4  1  0  0  0  0
  3 12  2  0  0  0  0
  4  5  2  0  0  0  0
  4 16  1  0  0  0  0
  5  6  1  0  0  0  0
  5 17  1  0  0  0  0
  6  7  1  0  0  0  0
  6  9  2  0  0  0  0
  7  8  3  0  0  0  0
  9 10  1  0  0  0  0
  9 12  1  0  0  0  0
 10 11  2  0  0  0  0
 10 18  1  0  0  0  0
 11 19  1  0  0  0  0
 11 20  1  0  0  0  0
 12 21  1  0  0  0  0
M  END
