
 OpenBabel02012213493D

 20 20  0  0  0  0  0  0  0  0999 V2000
    1.0842   -0.0932    0.1702 C   0  0  0  0  0  0  0  0  0  0  0  0
    2.5741   -0.0991    0.0031 C   0  0  0  0  0  0  0  0  0  0  0  0
    3.2954    1.0920   -0.0776 C   0  0  0  0  0  0  0  0  0  0  0  0
    4.6831    1.0631   -0.2201 C   0  0  0  0  0  0  0  0  0  0  0  0
    5.3756   -0.1564   -0.2981 C   0  0  0  0  0  0  0  0  0  0  0  0
    6.8721   -0.1376   -0.4440 C   0  0  0  0  0  0  0  0  0  0  0  0
    4.6538   -1.3623   -0.2621 C   0  0  0  0  0  0  0  0  0  0  0  0
    5.3048   -2.6056   -0.1982 N   0  0  0  0  0  0  0  0  0  0  0  0
    3.2667   -1.3164   -0.0590 C   0  0  0  0  0  0  0  0  0  0  0  0
    0.6810    0.9245    0.1407 H   0  0  0  0  0  0  0  0  0  0  0  0
    0.8081   -0.5394    1.1308 H   0  0  0  0  0  0  0  0  0  0  0  0
    0.6134   -0.6603   -0.6399 H   0  0  0  0  0  0  0  0  0  0  0  0
    2.7873    2.0514   -0.0173 H   0  0  0  0  0  0  0  0  0  0  0  0
    5.2255    2.0053   -0.2608 H   0  0  0  0  0  0  0  0  0  0  0  0
    7.2684    0.8829   -0.4080 H   0  0  0  0  0  0  0  0  0  0  0  0
    7.1604   -0.5697   -1.4081 H   0  0  0  0  0  0  0  0  0  0  0  0
    7.3449   -0.7021    0.3660 H   0  0  0  0  0  0  0  0  0  0  0  0
    6.2035   -2.6212   -0.6674 H   0  0  0  0  0  0  0  0  0  0  0  0
    4.7165   -3.3839   -0.4778 H   0  0  0  0  0  0  0  0  0  0  0  0
    2.7111   -2.2455    0.0466 H   0  0  0  0  0  0  0  0  0  0  0  0
  1  2  1  0  0  0  0
  1 10  1  0  0  0  0
  1 11  1  0  0  0  0
  1 12  1  0  0  0  0
  2  3  1  0  0  0  0
  2  9  2  0  0  0  0
  3  4  2  0  0  0  0
  3 13  1  0  0  0  0
  4  5  1  0  0  0  0
  4 14  1  0  0  0  0
  5  6  1  0  0  0  0
  5  7  2  0  0  0  0
  6 15  1  0  0  0  0
  6 16  1  0  0  0  0
  6 17  1  0  0  0  0
  7  8  1  0  0  0  0
  7  9  1  0  0  0  0
  8 18  1  0  0  0  0
  8 19  1  0  0  0  0
  9 20  1  0  0  0  0
M  END
