
 OpenBabel08112216343D

 24 24  0  0  0  0  0  0  0  0999 V2000
    1.0387    0.0981    0.0936 C   0  0  0  0  0  0  0  0  0  0  0  0
    2.3590    0.0170   -0.1186 C   0  0  0  0  0  0  0  0  0  0  0  0
    3.0410    0.5322   -1.3141 C   0  0  0  0  0  0  0  0  0  0  0  0
    2.5729    1.6435   -2.0178 C   0  0  0  0  0  0  0  0  0  0  0  0
    3.2274    2.0860   -3.1697 C   0  0  0  0  0  0  0  0  0  0  0  0
    4.3831    1.4431   -3.6258 C   0  0  0  0  0  0  0  0  0  0  0  0
    5.0589    1.8115   -4.7641 O   0  0  0  0  0  0  0  0  0  0  0  0
    4.4096    2.7383   -5.6287 C   0  0  0  0  0  0  0  0  0  0  0  0
    4.9204    0.3702   -2.8816 C   0  0  0  0  0  0  0  0  0  0  0  0
    6.1582   -0.3043   -3.3249 C   0  0  0  0  0  0  0  0  0  0  0  0
    7.0906   -0.8450   -2.5325 C   0  0  0  0  0  0  0  0  0  0  0  0
    6.9789   -0.8207   -1.1880 F   0  0  0  0  0  0  0  0  0  0  0  0
    8.1769   -1.4139   -3.0951 F   0  0  0  0  0  0  0  0  0  0  0  0
    4.2228   -0.0837   -1.7447 C   0  0  0  0  0  0  0  0  0  0  0  0
    0.6003   -0.3204    0.9937 H   0  0  0  0  0  0  0  0  0  0  0  0
    0.3579    0.5577   -0.6151 H   0  0  0  0  0  0  0  0  0  0  0  0
    2.9839   -0.4849    0.6169 H   0  0  0  0  0  0  0  0  0  0  0  0
    1.6899    2.1820   -1.6829 H   0  0  0  0  0  0  0  0  0  0  0  0
    2.8062    2.9441   -3.6827 H   0  0  0  0  0  0  0  0  0  0  0  0
    5.0268    2.8550   -6.5238 H   0  0  0  0  0  0  0  0  0  0  0  0
    4.3252    3.7221   -5.1553 H   0  0  0  0  0  0  0  0  0  0  0  0
    3.4293    2.3670   -5.9471 H   0  0  0  0  0  0  0  0  0  0  0  0
    6.3272   -0.3294   -4.3950 H   0  0  0  0  0  0  0  0  0  0  0  0
    4.5959   -0.9442   -1.1931 H   0  0  0  0  0  0  0  0  0  0  0  0
  1  2  2  0  0  0  0
  1 15  1  0  0  0  0
  1 16  1  0  0  0  0
  2  3  1  0  0  0  0
  2 17  1  0  0  0  0
  3  4  1  0  0  0  0
  3 14  2  0  0  0  0
  4  5  2  0  0  0  0
  4 18  1  0  0  0  0
  5  6  1  0  0  0  0
  5 19  1  0  0  0  0
  6  7  1  0  0  0  0
  6  9  2  0  0  0  0
  7  8  1  0  0  0  0
  8 20  1  0  0  0  0
  8 21  1  0  0  0  0
  8 22  1  0  0  0  0
  9 10  1  0  0  0  0
  9 14  1  0  0  0  0
 10 11  2  0  0  0  0
 10 23  1  0  0  0  0
 11 12  1  0  0  0  0
 11 13  1  0  0  0  0
 14 24  1  0  0  0  0
M  END
