
  xtb     02032211253D
 xtb: 6.4.1 (23d549d)
 22 22  0     0  0            999 V2000
    1.5075    0.3949   -0.8772 c   0  0  0  0  0  0  0  0  0  0  0  0
    2.5359   -0.0292   -0.1529 c   0  0  0  0  0  0  0  0  0  0  0  0
    3.1198   -1.3648   -0.1741 c   0  0  0  0  0  0  0  0  0  0  0  0
    2.6285   -2.4160   -0.9490 c   0  0  0  0  0  0  0  0  0  0  0  0
    3.2431   -3.6628   -0.9070 c   0  0  0  0  0  0  0  0  0  0  0  0
    2.6841   -4.7889   -1.6638 c   0  0  0  0  0  0  0  0  0  0  0  0
    2.1694   -4.6798   -2.8810 c   0  0  0  0  0  0  0  0  0  0  0  0
    4.3649   -3.8051   -0.0726 c   0  0  0  0  0  0  0  0  0  0  0  0
    5.1697   -5.0501    0.0597 c   0  0  0  0  0  0  0  0  0  0  0  0
    5.6835   -5.3874    1.0896 o   0  0  0  0  0  0  0  0  0  0  0  0
    5.3383   -5.7772   -1.0636 o   0  0  0  0  0  0  0  0  0  0  0  0
    4.7642   -2.6968    0.6780 c   0  0  0  0  0  0  0  0  0  0  0  0
    4.1747   -1.5260    0.6302 n   0  0  0  0  0  0  0  0  0  0  0  0
    1.1467    1.4055   -0.7931 h   0  0  0  0  0  0  0  0  0  0  0  0
    0.9839   -0.2334   -1.5782 h   0  0  0  0  0  0  0  0  0  0  0  0
    3.0332    0.6394    0.5362 h   0  0  0  0  0  0  0  0  0  0  0  0
    1.7482   -2.2832   -1.5568 h   0  0  0  0  0  0  0  0  0  0  0  0
    2.6983   -5.7491   -1.1622 h   0  0  0  0  0  0  0  0  0  0  0  0
    2.1601   -3.7431   -3.4144 h   0  0  0  0  0  0  0  0  0  0  0  0
    1.7536   -5.5282   -3.3961 h   0  0  0  0  0  0  0  0  0  0  0  0
    4.8846   -5.3955   -1.8285 h   0  0  0  0  0  0  0  0  0  0  0  0
    5.6147   -2.7833    1.3409 h   0  0  0  0  0  0  0  0  0  0  0  0
  1  2  2  0  0  0  0
  2  3  1  0  0  0  0
  3  4  4  0  0  0  0
  4  5  4  0  0  0  0
  5  6  1  0  0  0  0
  6  7  2  0  0  0  0
  5  8  4  0  0  0  0
  8  9  1  0  0  0  0
  9 10  2  0  0  0  0
  9 11  1  0  0  0  0
  8 12  4  0  0  0  0
  3 13  4  0  0  0  0
 12 13  4  0  0  0  0
  1 14  1  0  0  0  0
  1 15  1  0  0  0  0
  2 16  1  0  0  0  0
  4 17  1  0  0  0  0
  6 18  1  0  0  0  0
  7 19  1  0  0  0  0
  7 20  1  0  0  0  0
 11 21  1  0  0  0  0
 12 22  1  0  0  0  0
M  END
