
  xtb     02032211343D
 xtb: 6.4.1 (23d549d)
 47 49  0     0  0            999 V2000
    2.8700   -0.8948    2.1182 C   0  0  0  0  0  0  0  0  0  0  0  0
    1.8884   -1.5023    1.2898 O   0  0  0  0  0  0  0  0  0  0  0  0
    2.3436   -2.3465    0.3541 C   0  0  0  0  0  0  0  0  0  0  0  0
    1.2367   -2.9452   -0.4422 C   0  0  0  0  0  0  0  0  0  0  0  0
    0.1559   -2.2001   -0.9329 C   0  0  0  0  0  0  0  0  0  0  0  0
    0.1002   -0.8062   -0.7959 N   0  0  0  0  0  0  0  0  0  0  0  0
    1.2476   -0.0411   -0.9781 C   0  0  0  0  0  0  0  0  0  0  0  0
    1.4456    1.1248   -0.2395 C   0  0  0  0  0  0  0  0  0  0  0  0
    2.6053    1.8623   -0.4133 C   0  0  0  0  0  0  0  0  0  0  0  0
    2.7763    3.0886    0.4354 C   0  0  0  0  0  0  0  0  0  0  0  0
    1.7490    3.9488    0.3009 F   0  0  0  0  0  0  0  0  0  0  0  0
    2.8296    2.7855    1.7498 F   0  0  0  0  0  0  0  0  0  0  0  0
    3.8886    3.7811    0.1642 F   0  0  0  0  0  0  0  0  0  0  0  0
    3.5865    1.4652   -1.3105 C   0  0  0  0  0  0  0  0  0  0  0  0
    3.3833    0.3087   -2.0466 C   0  0  0  0  0  0  0  0  0  0  0  0
    2.2314   -0.4354   -1.8899 C   0  0  0  0  0  0  0  0  0  0  0  0
   -1.1154   -0.2045   -0.4526 C   0  0  0  0  0  0  0  0  0  0  0  0
   -1.9890   -0.8367    0.4325 C   0  0  0  0  0  0  0  0  0  0  0  0
   -3.1946   -0.2582    0.7654 C   0  0  0  0  0  0  0  0  0  0  0  0
   -3.5685    0.9766    0.2283 C   0  0  0  0  0  0  0  0  0  0  0  0
   -4.8206    1.6432    0.5369 C   0  0  0  0  0  0  0  0  0  0  0  0
   -5.8120    1.2208    1.3089 C   0  0  0  0  0  0  0  0  0  0  0  0
   -5.8945    0.0804    1.9850 F   0  0  0  0  0  0  0  0  0  0  0  0
   -6.9232    1.9253    1.5161 F   0  0  0  0  0  0  0  0  0  0  0  0
   -2.6857    1.6044   -0.6555 C   0  0  0  0  0  0  0  0  0  0  0  0
   -1.4828    1.0269   -0.9963 C   0  0  0  0  0  0  0  0  0  0  0  0
   -0.8668   -2.8643   -1.6099 C   0  0  0  0  0  0  0  0  0  0  0  0
   -0.8129   -4.2301   -1.8062 C   0  0  0  0  0  0  0  0  0  0  0  0
    0.2766   -4.9596   -1.3551 C   0  0  0  0  0  0  0  0  0  0  0  0
    1.2967   -4.3139   -0.6829 C   0  0  0  0  0  0  0  0  0  0  0  0
    3.5072   -2.6226    0.2112 O   0  0  0  0  0  0  0  0  0  0  0  0
    2.3773   -0.0733    2.6315 H   0  0  0  0  0  0  0  0  0  0  0  0
    3.6994   -0.5264    1.5115 H   0  0  0  0  0  0  0  0  0  0  0  0
    3.2534   -1.6200    2.8385 H   0  0  0  0  0  0  0  0  0  0  0  0
    0.7080    1.4417    0.4820 H   0  0  0  0  0  0  0  0  0  0  0  0
    4.4867    2.0464   -1.4276 H   0  0  0  0  0  0  0  0  0  0  0  0
    4.1327   -0.0138   -2.7519 H   0  0  0  0  0  0  0  0  0  0  0  0
    2.0865   -1.3312   -2.4747 H   0  0  0  0  0  0  0  0  0  0  0  0
   -1.7077   -1.7848    0.8654 H   0  0  0  0  0  0  0  0  0  0  0  0
   -3.8420   -0.7699    1.4579 H   0  0  0  0  0  0  0  0  0  0  0  0
   -4.9767    2.6102    0.0808 H   0  0  0  0  0  0  0  0  0  0  0  0
   -2.9550    2.5566   -1.0876 H   0  0  0  0  0  0  0  0  0  0  0  0
   -0.8224    1.5237   -1.6913 H   0  0  0  0  0  0  0  0  0  0  0  0
   -1.7011   -2.2919   -1.9876 H   0  0  0  0  0  0  0  0  0  0  0  0
   -1.6162   -4.7244   -2.3312 H   0  0  0  0  0  0  0  0  0  0  0  0
    0.3287   -6.0233   -1.5260 H   0  0  0  0  0  0  0  0  0  0  0  0
    2.1525   -4.8608   -0.3173 H   0  0  0  0  0  0  0  0  0  0  0  0
  1  2  1  0  0  0  0
  2  3  1  0  0  0  0
  3  4  1  0  0  0  0
  4  5  4  0  0  0  0
  5  6  1  0  0  0  0
  6  7  1  0  0  0  0
  7  8  4  0  0  0  0
  8  9  4  0  0  0  0
  9 10  1  0  0  0  0
 10 11  1  0  0  0  0
 10 12  1  0  0  0  0
 10 13  1  0  0  0  0
  9 14  4  0  0  0  0
 14 15  4  0  0  0  0
  7 16  4  0  0  0  0
 15 16  4  0  0  0  0
  6 17  1  0  0  0  0
 17 18  4  0  0  0  0
 18 19  4  0  0  0  0
 19 20  4  0  0  0  0
 20 21  1  0  0  0  0
 21 22  2  0  0  0  0
 22 23  1  0  0  0  0
 22 24  1  0  0  0  0
 20 25  4  0  0  0  0
 17 26  4  0  0  0  0
 25 26  4  0  0  0  0
  5 27  4  0  0  0  0
 27 28  4  0  0  0  0
 28 29  4  0  0  0  0
  4 30  4  0  0  0  0
 29 30  4  0  0  0  0
  3 31  2  0  0  0  0
  1 32  1  0  0  0  0
  1 33  1  0  0  0  0
  1 34  1  0  0  0  0
  8 35  1  0  0  0  0
 14 36  1  0  0  0  0
 15 37  1  0  0  0  0
 16 38  1  0  0  0  0
 18 39  1  0  0  0  0
 19 40  1  0  0  0  0
 21 41  1  0  0  0  0
 25 42  1  0  0  0  0
 26 43  1  0  0  0  0
 27 44  1  0  0  0  0
 28 45  1  0  0  0  0
 29 46  1  0  0  0  0
 30 47  1  0  0  0  0
M  END
