
 OpenBabel02012213413D

 39 42  0  0  0  0  0  0  0  0999 V2000
    2.4975   -1.2016   -0.2139 F   0  0  0  0  0  0  0  0  0  0  0  0
    2.5420    0.1756   -0.0792 C   0  0  0  0  0  0  0  0  0  0  0  0
    3.4954    0.6724   -0.9492 F   0  0  0  0  0  0  0  0  0  0  0  0
    1.3052    0.6901   -0.4238 F   0  0  0  0  0  0  0  0  0  0  0  0
    2.8818    0.5910    1.3311 C   0  0  0  0  0  0  0  0  0  0  0  0
    3.1189   -0.3564    2.3433 C   0  0  0  0  0  0  0  0  0  0  0  0
    3.4238    0.0448    3.6621 C   0  0  0  0  0  0  0  0  0  0  0  0
    3.7122   -0.9185    4.6946 N   0  0  0  0  0  0  0  0  0  0  0  0
    4.8810   -0.6175    5.4833 C   0  0  0  0  0  0  0  0  0  0  0  0
    5.1137    0.7057    5.9164 C   0  0  0  0  0  0  0  0  0  0  0  0
    3.9149    1.9967    5.5897 S   0  0  0  0  0  0  0  0  0  0  0  0
    6.2664    1.0252    6.6441 C   0  0  0  0  0  0  0  0  0  0  0  0
    7.2103    0.0403    6.9328 C   0  0  0  0  0  0  0  0  0  0  0  0
    7.0120   -1.2658    6.4866 C   0  0  0  0  0  0  0  0  0  0  0  0
    5.8628   -1.5931    5.7614 C   0  0  0  0  0  0  0  0  0  0  0  0
    2.8939   -2.1121    4.9058 C   0  0  0  0  0  0  0  0  0  0  0  0
    1.7047   -2.3428    4.1614 C   0  0  0  0  0  0  0  0  0  0  0  0
    0.9012   -3.4635    4.3831 C   0  0  0  0  0  0  0  0  0  0  0  0
    1.2343   -4.3904    5.3712 C   0  0  0  0  0  0  0  0  0  0  0  0
    0.3763   -5.5955    5.6194 C   0  0  0  0  0  0  0  0  0  0  0  0
    2.3710   -4.1721    6.1495 C   0  0  0  0  0  0  0  0  0  0  0  0
    3.1782   -3.0517    5.9333 C   0  0  0  0  0  0  0  0  0  0  0  0
    3.5320    1.4229    3.9354 C   0  0  0  0  0  0  0  0  0  0  0  0
    3.2981    2.3666    2.9313 C   0  0  0  0  0  0  0  0  0  0  0  0
    2.9704    1.9551    1.6400 C   0  0  0  0  0  0  0  0  0  0  0  0
    3.0895   -1.4095    2.0997 H   0  0  0  0  0  0  0  0  0  0  0  0
    6.4306    2.0385    6.9880 H   0  0  0  0  0  0  0  0  0  0  0  0
    8.1013    0.2917    7.4936 H   0  0  0  0  0  0  0  0  0  0  0  0
    7.7549   -2.0249    6.6942 H   0  0  0  0  0  0  0  0  0  0  0  0
    5.7635   -2.6063    5.3965 H   0  0  0  0  0  0  0  0  0  0  0  0
    1.3464   -1.6643    3.4091 H   0  0  0  0  0  0  0  0  0  0  0  0
    0.0083   -3.5985    3.7848 H   0  0  0  0  0  0  0  0  0  0  0  0
   -0.4943   -5.6254    4.9300 H   0  0  0  0  0  0  0  0  0  0  0  0
   -0.0030   -5.5754    6.6629 H   0  0  0  0  0  0  0  0  0  0  0  0
    0.9759   -6.5178    5.4678 H   0  0  0  0  0  0  0  0  0  0  0  0
    2.6293   -4.8683    6.9386 H   0  0  0  0  0  0  0  0  0  0  0  0
    4.0054   -2.9480    6.6091 H   0  0  0  0  0  0  0  0  0  0  0  0
    3.3663    3.4244    3.1517 H   0  0  0  0  0  0  0  0  0  0  0  0
    2.7921    2.7018    0.8758 H   0  0  0  0  0  0  0  0  0  0  0  0
  1  2  1  0  0  0  0
  2  3  1  0  0  0  0
  2  4  1  0  0  0  0
  2  5  1  0  0  0  0
  5  6  1  0  0  0  0
  5 25  2  0  0  0  0
  6  7  2  0  0  0  0
  6 26  1  0  0  0  0
  7  8  1  0  0  0  0
  7 23  1  0  0  0  0
  8  9  1  0  0  0  0
  8 16  1  0  0  0  0
  9 10  1  0  0  0  0
  9 15  2  0  0  0  0
 10 11  1  0  0  0  0
 10 12  2  0  0  0  0
 11 23  1  0  0  0  0
 12 13  1  0  0  0  0
 12 27  1  0  0  0  0
 13 14  2  0  0  0  0
 13 28  1  0  0  0  0
 14 15  1  0  0  0  0
 14 29  1  0  0  0  0
 15 30  1  0  0  0  0
 16 17  1  0  0  0  0
 16 22  2  0  0  0  0
 17 18  2  0  0  0  0
 17 31  1  0  0  0  0
 18 19  1  0  0  0  0
 18 32  1  0  0  0  0
 19 20  1  0  0  0  0
 19 21  2  0  0  0  0
 20 33  1  0  0  0  0
 20 34  1  0  0  0  0
 20 35  1  0  0  0  0
 21 22  1  0  0  0  0
 21 36  1  0  0  0  0
 22 37  1  0  0  0  0
 23 24  2  0  0  0  0
 24 25  1  0  0  0  0
 24 38  1  0  0  0  0
 25 39  1  0  0  0  0
M  END
