
 OpenBabel02012214113D

 22 22  0  0  0  0  0  0  0  0999 V2000
    1.1274   -0.4691    0.4853 C   0  0  0  0  0  0  0  0  0  0  0  0
    2.2353    0.2587    0.1063 O   0  0  0  0  0  0  0  0  0  0  0  0
    2.9546    1.1285    0.8692 C   0  0  0  0  0  0  0  0  0  0  0  0
    4.0571    1.7861    0.2776 C   0  0  0  0  0  0  0  0  0  0  0  0
    4.4479    1.5469   -1.1572 C   0  0  0  0  0  0  0  0  0  0  0  0
    4.8206    2.6906    1.0299 C   0  0  0  0  0  0  0  0  0  0  0  0
    4.5062    2.9544    2.3688 C   0  0  0  0  0  0  0  0  0  0  0  0
    5.3268    3.9252    3.1687 C   0  0  0  0  0  0  0  0  0  0  0  0
    3.4157    2.3045    2.9602 C   0  0  0  0  0  0  0  0  0  0  0  0
    3.0981    2.5489    4.2576 F   0  0  0  0  0  0  0  0  0  0  0  0
    2.6435    1.4000    2.2245 C   0  0  0  0  0  0  0  0  0  0  0  0
    1.5998    0.8019    2.8508 F   0  0  0  0  0  0  0  0  0  0  0  0
    0.7844   -1.0769   -0.3768 H   0  0  0  0  0  0  0  0  0  0  0  0
    0.3020    0.2128    0.7810 H   0  0  0  0  0  0  0  0  0  0  0  0
    1.3845   -1.1587    1.3170 H   0  0  0  0  0  0  0  0  0  0  0  0
    3.7857    0.8171   -1.6663 H   0  0  0  0  0  0  0  0  0  0  0  0
    5.4862    1.1553   -1.1985 H   0  0  0  0  0  0  0  0  0  0  0  0
    4.4008    2.5037   -1.7190 H   0  0  0  0  0  0  0  0  0  0  0  0
    5.6636    3.1904    0.5666 H   0  0  0  0  0  0  0  0  0  0  0  0
    6.1524    4.3585    2.5649 H   0  0  0  0  0  0  0  0  0  0  0  0
    5.7694    3.4071    4.0454 H   0  0  0  0  0  0  0  0  0  0  0  0
    4.6811    4.7556    3.5243 H   0  0  0  0  0  0  0  0  0  0  0  0
  1  2  1  0  0  0  0
  1 13  1  0  0  0  0
  1 14  1  0  0  0  0
  1 15  1  0  0  0  0
  2  3  1  0  0  0  0
  3  4  1  0  0  0  0
  3 11  2  0  0  0  0
  4  5  1  0  0  0  0
  4  6  2  0  0  0  0
  5 16  1  0  0  0  0
  5 17  1  0  0  0  0
  5 18  1  0  0  0  0
  6  7  1  0  0  0  0
  6 19  1  0  0  0  0
  7  8  1  0  0  0  0
  7  9  2  0  0  0  0
  8 20  1  0  0  0  0
  8 21  1  0  0  0  0
  8 22  1  0  0  0  0
  9 10  1  0  0  0  0
  9 11  1  0  0  0  0
 11 12  1  0  0  0  0
M  END
