
 OpenBabel02012214113D

 22 22  0  0  0  0  0  0  0  0999 V2000
    1.0960   -0.2874    0.4903 C   0  0  0  0  0  0  0  0  0  0  0  0
    2.4461    0.0076    0.1458 O   0  0  0  0  0  0  0  0  0  0  0  0
    3.0720    0.9536    0.9170 C   0  0  0  0  0  0  0  0  0  0  0  0
    4.0957    1.6904    0.2901 C   0  0  0  0  0  0  0  0  0  0  0  0
    4.4724    1.4830   -1.1532 C   0  0  0  0  0  0  0  0  0  0  0  0
    4.7888    2.6771    1.0194 C   0  0  0  0  0  0  0  0  0  0  0  0
    4.4885    2.9277    2.3621 C   0  0  0  0  0  0  0  0  0  0  0  0
    5.2157    3.9764    3.1460 C   0  0  0  0  0  0  0  0  0  0  0  0
    3.4895    2.1698    2.9729 C   0  0  0  0  0  0  0  0  0  0  0  0
    3.1967    2.3824    4.2648 F   0  0  0  0  0  0  0  0  0  0  0  0
    2.7917    1.1951    2.2661 C   0  0  0  0  0  0  0  0  0  0  0  0
    1.8586    0.4859    2.9210 F   0  0  0  0  0  0  0  0  0  0  0  0
    0.6575   -0.8472   -0.3419 H   0  0  0  0  0  0  0  0  0  0  0  0
    0.5069    0.6263    0.6240 H   0  0  0  0  0  0  0  0  0  0  0  0
    1.0455   -0.9294    1.3740 H   0  0  0  0  0  0  0  0  0  0  0  0
    3.9054    0.6789   -1.6311 H   0  0  0  0  0  0  0  0  0  0  0  0
    5.5336    1.2248   -1.2278 H   0  0  0  0  0  0  0  0  0  0  0  0
    4.2871    2.4008   -1.7203 H   0  0  0  0  0  0  0  0  0  0  0  0
    5.5704    3.2533    0.5248 H   0  0  0  0  0  0  0  0  0  0  0  0
    5.9569    4.4968    2.5294 H   0  0  0  0  0  0  0  0  0  0  0  0
    5.7416    3.5204    3.9907 H   0  0  0  0  0  0  0  0  0  0  0  0
    4.5098    4.7240    3.5220 H   0  0  0  0  0  0  0  0  0  0  0  0
  1  2  1  0  0  0  0
  1 13  1  0  0  0  0
  1 14  1  0  0  0  0
  1 15  1  0  0  0  0
  2  3  1  0  0  0  0
  3  4  1  0  0  0  0
  3 11  2  0  0  0  0
  4  5  1  0  0  0  0
  4  6  2  0  0  0  0
  5 16  1  0  0  0  0
  5 17  1  0  0  0  0
  5 18  1  0  0  0  0
  6  7  1  0  0  0  0
  6 19  1  0  0  0  0
  7  8  1  0  0  0  0
  7  9  2  0  0  0  0
  8 20  1  0  0  0  0
  8 21  1  0  0  0  0
  8 22  1  0  0  0  0
  9 10  1  0  0  0  0
  9 11  1  0  0  0  0
 11 12  1  0  0  0  0
M  END
