
  xtb     02012214113D
 xtb: 6.4.1 (23d549d)
 22 22  0     0  0            999 V2000
    2.2127   -0.2255   -1.1032 c   0  0  0  0  0  0  0  0  0  0  0  0
    2.1647    0.2424    0.2182 o   0  0  0  0  0  0  0  0  0  0  0  0
    3.0317    1.1463    0.7536 c   0  0  0  0  0  0  0  0  0  0  0  0
    4.1290    1.8192    0.2103 c   0  0  0  0  0  0  0  0  0  0  0  0
    4.6710    1.7134   -1.1929 c   0  0  0  0  0  0  0  0  0  0  0  0
    4.8344    2.7036    1.0314 c   0  0  0  0  0  0  0  0  0  0  0  0
    4.5260    2.9643    2.3503 c   0  0  0  0  0  0  0  0  0  0  0  0
    5.3056    3.9187    3.1988 c   0  0  0  0  0  0  0  0  0  0  0  0
    3.4309    2.2868    2.8784 c   0  0  0  0  0  0  0  0  0  0  0  0
    3.0725    2.4932    4.1611 f   0  0  0  0  0  0  0  0  0  0  0  0
    2.7104    1.4073    2.1006 c   0  0  0  0  0  0  0  0  0  0  0  0
    1.6548    0.7636    2.6330 f   0  0  0  0  0  0  0  0  0  0  0  0
    1.3776   -0.9234   -1.1770 h   0  0  0  0  0  0  0  0  0  0  0  0
    3.1399   -0.7665   -1.3143 h   0  0  0  0  0  0  0  0  0  0  0  0
    2.0616    0.5784   -1.8298 h   0  0  0  0  0  0  0  0  0  0  0  0
    4.1342    1.0321   -1.8353 h   0  0  0  0  0  0  0  0  0  0  0  0
    5.7106    1.3891   -1.1496 h   0  0  0  0  0  0  0  0  0  0  0  0
    4.6541    2.6996   -1.6566 h   0  0  0  0  0  0  0  0  0  0  0  0
    5.6800    3.2155    0.5952 h   0  0  0  0  0  0  0  0  0  0  0  0
    6.1220    4.3582    2.6334 h   0  0  0  0  0  0  0  0  0  0  0  0
    5.7117    3.4035    4.0682 h   0  0  0  0  0  0  0  0  0  0  0  0
    4.6568    4.7138    3.5636 h   0  0  0  0  0  0  0  0  0  0  0  0
  1  2  1  0  0  0  0
  2  3  1  0  0  0  0
  3  4  4  0  0  0  0
  4  5  1  0  0  0  0
  4  6  4  0  0  0  0
  6  7  4  0  0  0  0
  7  8  1  0  0  0  0
  7  9  4  0  0  0  0
  9 10  1  0  0  0  0
  3 11  4  0  0  0  0
  9 11  4  0  0  0  0
 11 12  1  0  0  0  0
  1 13  1  0  0  0  0
  1 14  1  0  0  0  0
  1 15  1  0  0  0  0
  5 16  1  0  0  0  0
  5 17  1  0  0  0  0
  5 18  1  0  0  0  0
  6 19  1  0  0  0  0
  8 20  1  0  0  0  0
  8 21  1  0  0  0  0
  8 22  1  0  0  0  0
M  END
