
  xtb     02032211213D
 xtb: 6.4.1 (23d549d)
 20 20  0     0  0            999 V2000
    1.2652    0.1799    0.1417 c   0  0  0  0  0  0  0  0  0  0  0  0
    2.5083   -0.1180   -0.2154 c   0  0  0  0  0  0  0  0  0  0  0  0
    3.2755    0.5778   -1.2354 c   0  0  0  0  0  0  0  0  0  0  0  0
    2.9887    1.8246   -1.7279 c   0  0  0  0  0  0  0  0  0  0  0  0
    4.1109    2.3761   -2.8876 s   0  0  0  0  0  0  0  0  0  0  0  0
    5.0213    0.9077   -2.7417 c   0  0  0  0  0  0  0  0  0  0  0  0
    6.1484    0.8054   -3.6794 c   0  0  0  0  0  0  0  0  0  0  0  0
    6.4906    1.7452   -4.3491 o   0  0  0  0  0  0  0  0  0  0  0  0
    6.7643   -0.3833   -3.7899 o   0  0  0  0  0  0  0  0  0  0  0  0
    4.4672    0.0447   -1.8189 c   0  0  0  0  0  0  0  0  0  0  0  0
    4.9882   -1.2669   -1.4318 c   0  0  0  0  0  0  0  0  0  0  0  0
    6.2364   -1.5012   -1.0438 c   0  0  0  0  0  0  0  0  0  0  0  0
    0.7554   -0.3738    0.9106 h   0  0  0  0  0  0  0  0  0  0  0  0
    0.7093    0.9773   -0.3206 h   0  0  0  0  0  0  0  0  0  0  0  0
    3.0224   -0.9379    0.2684 h   0  0  0  0  0  0  0  0  0  0  0  0
    2.1723    2.4582   -1.4440 h   0  0  0  0  0  0  0  0  0  0  0  0
    6.4100   -1.0458   -3.1740 h   0  0  0  0  0  0  0  0  0  0  0  0
    4.2583   -2.0678   -1.4302 h   0  0  0  0  0  0  0  0  0  0  0  0
    6.9743   -0.7168   -0.9839 h   0  0  0  0  0  0  0  0  0  0  0  0
    6.5582   -2.4837   -0.7435 h   0  0  0  0  0  0  0  0  0  0  0  0
  1  2  2  0  0  0  0
  2  3  1  0  0  0  0
  3  4  2  0  0  0  0
  4  5  1  0  0  0  0
  5  6  1  0  0  0  0
  6  7  1  0  0  0  0
  7  8  2  0  0  0  0
  7  9  1  0  0  0  0
  3 10  4  0  0  0  0
  6 10  4  0  0  0  0
 10 11  1  0  0  0  0
 11 12  2  0  0  0  0
  1 13  1  0  0  0  0
  1 14  1  0  0  0  0
  2 15  1  0  0  0  0
  4 16  1  0  0  0  0
  9 17  1  0  0  0  0
 11 18  1  0  0  0  0
 12 19  1  0  0  0  0
 12 20  1  0  0  0  0
M  END
