
 OpenBabel08112216353D

 17 17  0  0  0  0  0  0  0  0999 V2000
    1.1144   -0.5964   -0.1884 C   0  0  0  0  0  0  0  0  0  0  0  0
    2.3805   -0.2501    0.0894 C   0  0  0  0  0  0  0  0  0  0  0  0
    3.1263   -0.6580    1.2488 C   0  0  0  0  0  0  0  0  0  0  0  0
    2.8694   -1.8476    1.9044 C   0  0  0  0  0  0  0  0  0  0  0  0
    3.8925   -2.1044    3.2436 S   0  0  0  0  0  0  0  0  0  0  0  0
    4.7087   -0.6315    2.9593 C   0  0  0  0  0  0  0  0  0  0  0  0
    4.2243    0.0593    1.8631 C   0  0  0  0  0  0  0  0  0  0  0  0
    4.7475    1.3279    1.4272 C   0  0  0  0  0  0  0  0  0  0  0  0
    5.7416    2.0491    1.9639 C   0  0  0  0  0  0  0  0  0  0  0  0
    6.4157    1.6401    3.0578 F   0  0  0  0  0  0  0  0  0  0  0  0
    6.0770    3.2250    1.3904 F   0  0  0  0  0  0  0  0  0  0  0  0
    0.6288   -0.2459   -1.0936 H   0  0  0  0  0  0  0  0  0  0  0  0
    0.5229   -1.2219    0.4728 H   0  0  0  0  0  0  0  0  0  0  0  0
    2.8812    0.3975   -0.6271 H   0  0  0  0  0  0  0  0  0  0  0  0
    2.1292   -2.5976    1.6624 H   0  0  0  0  0  0  0  0  0  0  0  0
    5.5102   -0.3611    3.6315 H   0  0  0  0  0  0  0  0  0  0  0  0
    4.2874    1.7760    0.5516 H   0  0  0  0  0  0  0  0  0  0  0  0
  1  2  2  0  0  0  0
  1 12  1  0  0  0  0
  1 13  1  0  0  0  0
  2  3  1  0  0  0  0
  2 14  1  0  0  0  0
  3  4  2  0  0  0  0
  3  7  1  0  0  0  0
  4  5  1  0  0  0  0
  4 15  1  0  0  0  0
  5  6  1  0  0  0  0
  6  7  2  0  0  0  0
  6 16  1  0  0  0  0
  7  8  1  0  0  0  0
  8  9  2  0  0  0  0
  8 17  1  0  0  0  0
  9 10  1  0  0  0  0
  9 11  1  0  0  0  0
M  END
