
 OpenBabel08112216353D

 17 17  0  0  0  0  0  0  0  0999 V2000
    1.1156   -0.5951   -0.1899 C   0  0  0  0  0  0  0  0  0  0  0  0
    2.3806   -0.2497    0.0900 C   0  0  0  0  0  0  0  0  0  0  0  0
    3.1274   -0.6580    1.2493 C   0  0  0  0  0  0  0  0  0  0  0  0
    2.8691   -1.8480    1.9055 C   0  0  0  0  0  0  0  0  0  0  0  0
    3.8929   -2.1052    3.2443 S   0  0  0  0  0  0  0  0  0  0  0  0
    4.7093   -0.6320    2.9600 C   0  0  0  0  0  0  0  0  0  0  0  0
    4.2238    0.0584    1.8651 C   0  0  0  0  0  0  0  0  0  0  0  0
    4.7484    1.3275    1.4281 C   0  0  0  0  0  0  0  0  0  0  0  0
    5.7408    2.0496    1.9631 C   0  0  0  0  0  0  0  0  0  0  0  0
    6.4163    1.6410    3.0567 F   0  0  0  0  0  0  0  0  0  0  0  0
    6.0750    3.2252    1.3884 F   0  0  0  0  0  0  0  0  0  0  0  0
    0.6309   -0.2426   -1.0943 H   0  0  0  0  0  0  0  0  0  0  0  0
    0.5229   -1.2212    0.4709 H   0  0  0  0  0  0  0  0  0  0  0  0
    2.8827    0.3985   -0.6255 H   0  0  0  0  0  0  0  0  0  0  0  0
    2.1288   -2.5981    1.6634 H   0  0  0  0  0  0  0  0  0  0  0  0
    5.5114   -0.3618    3.6318 H   0  0  0  0  0  0  0  0  0  0  0  0
    4.2848    1.7749    0.5523 H   0  0  0  0  0  0  0  0  0  0  0  0
  1  2  2  0  0  0  0
  1 12  1  0  0  0  0
  1 13  1  0  0  0  0
  2  3  1  0  0  0  0
  2 14  1  0  0  0  0
  3  4  2  0  0  0  0
  3  7  1  0  0  0  0
  4  5  1  0  0  0  0
  4 15  1  0  0  0  0
  5  6  1  0  0  0  0
  6  7  2  0  0  0  0
  6 16  1  0  0  0  0
  7  8  1  0  0  0  0
  8  9  2  0  0  0  0
  8 17  1  0  0  0  0
  9 10  1  0  0  0  0
  9 11  1  0  0  0  0
M  END
