
  xtb     02032210563D
 xtb: 6.4.1 (23d549d)
 40 42  0     0  0            999 V2000
    2.0146    0.2813   -1.2193 c   0  0  0  0  0  0  0  0  0  0  0  0
    2.5621   -0.1529   -0.0901 c   0  0  0  0  0  0  0  0  0  0  0  0
    3.3619    0.6285    0.8438 c   0  0  0  0  0  0  0  0  0  0  0  0
    3.4771    2.0177    0.7727 c   0  0  0  0  0  0  0  0  0  0  0  0
    4.2587    2.7114    1.6717 c   0  0  0  0  0  0  0  0  0  0  0  0
    4.9549    2.0482    2.6821 c   0  0  0  0  0  0  0  0  0  0  0  0
    5.7934    2.7894    3.6313 c   0  0  0  0  0  0  0  0  0  0  0  0
    6.5684    3.8681    3.2077 c   0  0  0  0  0  0  0  0  0  0  0  0
    7.3618    4.5630    4.0970 c   0  0  0  0  0  0  0  0  0  0  0  0
    7.4118    4.2030    5.4426 c   0  0  0  0  0  0  0  0  0  0  0  0
    8.2614    4.9375    6.3873 c   0  0  0  0  0  0  0  0  0  0  0  0
    8.3680    6.3265    6.3249 c   0  0  0  0  0  0  0  0  0  0  0  0
    9.1627    7.0189    7.2134 c   0  0  0  0  0  0  0  0  0  0  0  0
    9.8915    6.3493    8.1979 c   0  0  0  0  0  0  0  0  0  0  0  0
   10.7453    7.0330    9.1600 c   0  0  0  0  0  0  0  0  0  0  0  0
   10.8417    8.3445    9.3445 c   0  0  0  0  0  0  0  0  0  0  0  0
    9.7906    4.9575    8.2497 c   0  0  0  0  0  0  0  0  0  0  0  0
    8.9878    4.2648    7.3682 c   0  0  0  0  0  0  0  0  0  0  0  0
    6.6360    3.1256    5.8669 c   0  0  0  0  0  0  0  0  0  0  0  0
    5.8405    2.4325    4.9781 c   0  0  0  0  0  0  0  0  0  0  0  0
    4.8326    0.6620    2.7637 c   0  0  0  0  0  0  0  0  0  0  0  0
    4.0509   -0.0309    1.8638 c   0  0  0  0  0  0  0  0  0  0  0  0
    1.4432   -0.3759   -1.8523 h   0  0  0  0  0  0  0  0  0  0  0  0
    2.1165    1.2961   -1.5638 h   0  0  0  0  0  0  0  0  0  0  0  0
    2.4366   -1.1930    0.1868 h   0  0  0  0  0  0  0  0  0  0  0  0
    2.9400    2.5633    0.0118 h   0  0  0  0  0  0  0  0  0  0  0  0
    4.3160    3.7885    1.6076 h   0  0  0  0  0  0  0  0  0  0  0  0
    6.5666    4.1473    2.1641 h   0  0  0  0  0  0  0  0  0  0  0  0
    7.9723    5.3806    3.7419 h   0  0  0  0  0  0  0  0  0  0  0  0
    7.8018    6.8688    5.5813 h   0  0  0  0  0  0  0  0  0  0  0  0
    9.2226    8.0938    7.1378 h   0  0  0  0  0  0  0  0  0  0  0  0
   11.3397    6.3727    9.7807 h   0  0  0  0  0  0  0  0  0  0  0  0
   10.2706    9.0575    8.7751 h   0  0  0  0  0  0  0  0  0  0  0  0
   11.5017    8.7576   10.0881 h   0  0  0  0  0  0  0  0  0  0  0  0
   10.3521    4.4148    8.9977 h   0  0  0  0  0  0  0  0  0  0  0  0
    8.9392    3.1867    7.4217 h   0  0  0  0  0  0  0  0  0  0  0  0
    6.6406    2.8460    6.9106 h   0  0  0  0  0  0  0  0  0  0  0  0
    5.2282    1.6167    5.3343 h   0  0  0  0  0  0  0  0  0  0  0  0
    5.3739    0.1225    3.5275 h   0  0  0  0  0  0  0  0  0  0  0  0
    3.9759   -1.1069    1.9413 h   0  0  0  0  0  0  0  0  0  0  0  0
  1  2  2  0  0  0  0
  2  3  1  0  0  0  0
  3  4  4  0  0  0  0
  4  5  4  0  0  0  0
  5  6  4  0  0  0  0
  6  7  1  0  0  0  0
  7  8  4  0  0  0  0
  8  9  4  0  0  0  0
  9 10  4  0  0  0  0
 10 11  1  0  0  0  0
 11 12  4  0  0  0  0
 12 13  4  0  0  0  0
 13 14  4  0  0  0  0
 14 15  1  0  0  0  0
 15 16  2  0  0  0  0
 14 17  4  0  0  0  0
 11 18  4  0  0  0  0
 17 18  4  0  0  0  0
 10 19  4  0  0  0  0
  7 20  4  0  0  0  0
 19 20  4  0  0  0  0
  6 21  4  0  0  0  0
  3 22  4  0  0  0  0
 21 22  4  0  0  0  0
  1 23  1  0  0  0  0
  1 24  1  0  0  0  0
  2 25  1  0  0  0  0
  4 26  1  0  0  0  0
  5 27  1  0  0  0  0
  8 28  1  0  0  0  0
  9 29  1  0  0  0  0
 12 30  1  0  0  0  0
 13 31  1  0  0  0  0
 15 32  1  0  0  0  0
 16 33  1  0  0  0  0
 16 34  1  0  0  0  0
 17 35  1  0  0  0  0
 18 36  1  0  0  0  0
 19 37  1  0  0  0  0
 20 38  1  0  0  0  0
 21 39  1  0  0  0  0
 22 40  1  0  0  0  0
M  END
