
 OpenBabel02032210553D

 20 20  0  0  0  0  0  0  0  0999 V2000
    1.0318    0.2754   -0.0019 C   0  0  0  0  0  0  0  0  0  0  0  0
    2.2580   -0.2483    0.1420 C   0  0  0  0  0  0  0  0  0  0  0  0
    2.9819   -1.1401   -0.8244 C   0  0  0  0  0  0  0  0  0  0  0  0
    4.2363   -1.6364   -0.4196 C   0  0  0  0  0  0  0  0  0  0  0  0
    4.7529   -1.3173    0.7955 F   0  0  0  0  0  0  0  0  0  0  0  0
    4.9753   -2.4709   -1.2524 C   0  0  0  0  0  0  0  0  0  0  0  0
    6.1794   -2.9406   -0.8382 F   0  0  0  0  0  0  0  0  0  0  0  0
    4.4895   -2.8287   -2.5065 C   0  0  0  0  0  0  0  0  0  0  0  0
    5.2476   -3.6471   -3.2817 F   0  0  0  0  0  0  0  0  0  0  0  0
    3.2411   -2.3586   -2.9584 C   0  0  0  0  0  0  0  0  0  0  0  0
    2.8018   -2.7976   -4.3247 C   0  0  0  0  0  0  0  0  0  0  0  0
    1.6357   -2.5233   -4.9279 C   0  0  0  0  0  0  0  0  0  0  0  0
    2.4878   -1.5063   -2.1054 C   0  0  0  0  0  0  0  0  0  0  0  0
    1.2978   -1.0296   -2.5228 F   0  0  0  0  0  0  0  0  0  0  0  0
    0.6320    0.9049    0.7876 H   0  0  0  0  0  0  0  0  0  0  0  0
    0.3918    0.1138   -0.8530 H   0  0  0  0  0  0  0  0  0  0  0  0
    2.7645    0.0053    1.0693 H   0  0  0  0  0  0  0  0  0  0  0  0
    3.4881   -3.4112   -4.9009 H   0  0  0  0  0  0  0  0  0  0  0  0
    0.8425   -1.9388   -4.4929 H   0  0  0  0  0  0  0  0  0  0  0  0
    1.4540   -2.9142   -5.9243 H   0  0  0  0  0  0  0  0  0  0  0  0
  1  2  2  0  0  0  0
  1 15  1  0  0  0  0
  1 16  1  0  0  0  0
  2  3  1  0  0  0  0
  2 17  1  0  0  0  0
  3  4  1  0  0  0  0
  3 13  2  0  0  0  0
  4  5  1  0  0  0  0
  4  6  2  0  0  0  0
  6  7  1  0  0  0  0
  6  8  1  0  0  0  0
  8  9  1  0  0  0  0
  8 10  2  0  0  0  0
 10 11  1  0  0  0  0
 10 13  1  0  0  0  0
 11 12  2  0  0  0  0
 11 18  1  0  0  0  0
 12 19  1  0  0  0  0
 12 20  1  0  0  0  0
 13 14  1  0  0  0  0
M  END
