16

C          1.00520       -0.08690       -0.07400
C          2.50400       -0.04530       -0.07020
C          3.20020        1.16910       -0.06620
N          4.55830        1.17300       -0.06270
C          5.26260        0.01000       -0.06300
C          6.75470        0.03650       -0.05860
N          4.60550       -1.17990       -0.06690
C          3.24800       -1.22990       -0.07060
H          0.57180        0.93600       -0.07290
H          0.64440       -0.62290        0.82900
H          0.64870       -0.61940       -0.98050
H          2.66770        2.11130       -0.06580
H          7.12690        1.08290       -0.05610
H          7.13880       -0.47920       -0.96340
H          7.13340       -0.48150        0.84720
H          2.75010       -2.19100       -0.07370
