
  xtb     02032211353D
 xtb: 6.4.1 (23d549d)
 22 22  0     0  0            999 V2000
    3.5228   -0.1972   -0.5110 C   0  0  0  0  0  0  0  0  0  0  0  0
    2.4264   -0.5638    0.1381 C   0  0  0  0  0  0  0  0  0  0  0  0
    1.1522    0.1544    0.0984 C   0  0  0  0  0  0  0  0  0  0  0  0
    1.1497    1.5444    0.0464 C   0  0  0  0  0  0  0  0  0  0  0  0
   -0.0322    2.2594    0.0680 C   0  0  0  0  0  0  0  0  0  0  0  0
   -1.2335    1.5807    0.1279 C   0  0  0  0  0  0  0  0  0  0  0  0
   -1.2798    0.1898    0.1371 C   0  0  0  0  0  0  0  0  0  0  0  0
   -2.5994   -0.4434    0.1565 C   0  0  0  0  0  0  0  0  0  0  0  0
   -2.9664   -1.5310   -0.5108 C   0  0  0  0  0  0  0  0  0  0  0  0
   -0.0743   -0.5394    0.1413 C   0  0  0  0  0  0  0  0  0  0  0  0
   -0.0967   -1.9176    0.1342 N   0  0  0  0  0  0  0  0  0  0  0  0
    4.4442   -0.7476   -0.4239 H   0  0  0  0  0  0  0  0  0  0  0  0
    3.5372    0.6574   -1.1660 H   0  0  0  0  0  0  0  0  0  0  0  0
    2.4656   -1.4492    0.7646 H   0  0  0  0  0  0  0  0  0  0  0  0
    2.0947    2.0660    0.0256 H   0  0  0  0  0  0  0  0  0  0  0  0
   -0.0166    3.3387    0.0483 H   0  0  0  0  0  0  0  0  0  0  0  0
   -2.1638    2.1308    0.1474 H   0  0  0  0  0  0  0  0  0  0  0  0
   -3.3408    0.0867    0.7445 H   0  0  0  0  0  0  0  0  0  0  0  0
   -2.2971   -2.0564   -1.1708 H   0  0  0  0  0  0  0  0  0  0  0  0
   -3.9748   -1.9070   -0.4554 H   0  0  0  0  0  0  0  0  0  0  0  0
   -0.9410   -2.3364    0.4938 H   0  0  0  0  0  0  0  0  0  0  0  0
    0.7544   -2.3773    0.4146 H   0  0  0  0  0  0  0  0  0  0  0  0
  1  2  2  0  0  0  0
  2  3  1  0  0  0  0
  3  4  4  0  0  0  0
  4  5  4  0  0  0  0
  5  6  4  0  0  0  0
  6  7  4  0  0  0  0
  7  8  1  0  0  0  0
  8  9  2  0  0  0  0
  3 10  4  0  0  0  0
  7 10  4  0  0  0  0
 10 11  1  0  0  0  0
  1 12  1  0  0  0  0
  1 13  1  0  0  0  0
  2 14  1  0  0  0  0
  4 15  1  0  0  0  0
  5 16  1  0  0  0  0
  6 17  1  0  0  0  0
  8 18  1  0  0  0  0
  9 19  1  0  0  0  0
  9 20  1  0  0  0  0
 11 21  1  0  0  0  0
 11 22  1  0  0  0  0
M  END
