
 OpenBabel02012213463D

 18 18  0  0  0  0  0  0  0  0999 V2000
    2.9061    0.0066    0.0043 C   0  0  0  0  0  0  0  0  0  0  0  0
    1.4059   -0.0083    0.0024 C   0  0  0  0  0  0  0  0  0  0  0  0
    0.6989   -1.2209    0.0012 C   0  0  0  0  0  0  0  0  0  0  0  0
   -0.6994   -1.2218   -0.0002 C   0  0  0  0  0  0  0  0  0  0  0  0
   -1.4078   -0.0099   -0.0006 C   0  0  0  0  0  0  0  0  0  0  0  0
   -2.9079    0.0030   -0.0020 C   0  0  0  0  0  0  0  0  0  0  0  0
   -0.7008    1.2015    0.0004 C   0  0  0  0  0  0  0  0  0  0  0  0
    0.6974    1.2023    0.0020 C   0  0  0  0  0  0  0  0  0  0  0  0
    3.3237   -1.0228    0.0032 H   0  0  0  0  0  0  0  0  0  0  0  0
    3.2729    0.5333    0.9103 H   0  0  0  0  0  0  0  0  0  0  0  0
    3.2754    0.5363   -0.8989 H   0  0  0  0  0  0  0  0  0  0  0  0
    1.2275   -2.1661    0.0015 H   0  0  0  0  0  0  0  0  0  0  0  0
   -1.2267   -2.1676   -0.0010 H   0  0  0  0  0  0  0  0  0  0  0  0
   -3.3243   -1.0268   -0.0020 H   0  0  0  0  0  0  0  0  0  0  0  0
   -3.2760    0.5307   -0.9070 H   0  0  0  0  0  0  0  0  0  0  0  0
   -3.2774    0.5310    0.9023 H   0  0  0  0  0  0  0  0  0  0  0  0
   -1.2332    2.1448    0.0000 H   0  0  0  0  0  0  0  0  0  0  0  0
    1.2288    2.1463    0.0029 H   0  0  0  0  0  0  0  0  0  0  0  0
  1  2  1  0  0  0  0
  1  9  1  0  0  0  0
  1 10  1  0  0  0  0
  1 11  1  0  0  0  0
  2  3  1  0  0  0  0
  2  8  2  0  0  0  0
  3  4  2  0  0  0  0
  3 12  1  0  0  0  0
  4  5  1  0  0  0  0
  4 13  1  0  0  0  0
  5  6  1  0  0  0  0
  5  7  2  0  0  0  0
  6 14  1  0  0  0  0
  6 15  1  0  0  0  0
  6 16  1  0  0  0  0
  7  8  1  0  0  0  0
  7 17  1  0  0  0  0
  8 18  1  0  0  0  0
M  END
