
 OpenBabel02012214003D

 24 24  0  0  0  0  0  0  0  0999 V2000
    2.4829    1.1943    0.0051 C   0  0  0  0  0  0  0  0  0  0  0  0
    1.2263    0.3748   -0.0151 C   0  0  0  0  0  0  0  0  0  0  0  0
    1.2743   -1.0187   -0.0178 C   0  0  0  0  0  0  0  0  0  0  0  0
    0.0939   -1.7641   -0.0222 C   0  0  0  0  0  0  0  0  0  0  0  0
   -1.1663   -1.1365   -0.0210 C   0  0  0  0  0  0  0  0  0  0  0  0
   -2.4032   -2.0131    0.0025 C   0  0  0  0  0  0  0  0  0  0  0  0
   -3.3403   -1.8918   -1.1797 C   0  0  0  0  0  0  0  0  0  0  0  0
   -4.5384   -2.1290   -1.1013 O   0  0  0  0  0  0  0  0  0  0  0  0
   -2.7599   -1.5705   -2.3582 O   0  0  0  0  0  0  0  0  0  0  0  0
   -1.2230    0.2716   -0.0093 C   0  0  0  0  0  0  0  0  0  0  0  0
   -2.5067    1.0590    0.0121 C   0  0  0  0  0  0  0  0  0  0  0  0
   -0.0221    1.0073   -0.0152 C   0  0  0  0  0  0  0  0  0  0  0  0
    3.3762    0.5613    0.0006 H   0  0  0  0  0  0  0  0  0  0  0  0
    2.5153    1.8129    0.9079 H   0  0  0  0  0  0  0  0  0  0  0  0
    2.5260    1.8417   -0.8767 H   0  0  0  0  0  0  0  0  0  0  0  0
    2.2311   -1.5366   -0.0048 H   0  0  0  0  0  0  0  0  0  0  0  0
    0.1716   -2.8504   -0.0091 H   0  0  0  0  0  0  0  0  0  0  0  0
   -2.9629   -1.7837    0.9175 H   0  0  0  0  0  0  0  0  0  0  0  0
   -2.1178   -3.0707    0.0612 H   0  0  0  0  0  0  0  0  0  0  0  0
   -1.8001   -1.3955   -2.2924 H   0  0  0  0  0  0  0  0  0  0  0  0
   -3.3963    0.4320    0.0948 H   0  0  0  0  0  0  0  0  0  0  0  0
   -2.5953    1.6479   -0.9070 H   0  0  0  0  0  0  0  0  0  0  0  0
   -2.5133    1.7365    0.8723 H   0  0  0  0  0  0  0  0  0  0  0  0
   -0.0634    2.0964   -0.0055 H   0  0  0  0  0  0  0  0  0  0  0  0
  1  2  1  0  0  0  0
  1 13  1  0  0  0  0
  1 14  1  0  0  0  0
  1 15  1  0  0  0  0
  2  3  1  0  0  0  0
  2 12  2  0  0  0  0
  3  4  2  0  0  0  0
  3 16  1  0  0  0  0
  4  5  1  0  0  0  0
  4 17  1  0  0  0  0
  5  6  1  0  0  0  0
  5 10  2  0  0  0  0
  6  7  1  0  0  0  0
  6 18  1  0  0  0  0
  6 19  1  0  0  0  0
  7  8  2  0  0  0  0
  7  9  1  0  0  0  0
  9 20  1  0  0  0  0
 10 11  1  0  0  0  0
 10 12  1  0  0  0  0
 11 21  1  0  0  0  0
 11 22  1  0  0  0  0
 11 23  1  0  0  0  0
 12 24  1  0  0  0  0
M  END
