
 OpenBabel02012214003D

 24 24  0  0  0  0  0  0  0  0999 V2000
    2.4919    1.1571   -0.0330 C   0  0  0  0  0  0  0  0  0  0  0  0
    1.2302    0.3461   -0.0060 C   0  0  0  0  0  0  0  0  0  0  0  0
    1.2771   -1.0516    0.0420 C   0  0  0  0  0  0  0  0  0  0  0  0
    0.0971   -1.7955    0.0666 C   0  0  0  0  0  0  0  0  0  0  0  0
   -1.1580   -1.1608    0.0379 C   0  0  0  0  0  0  0  0  0  0  0  0
   -2.4047   -2.0235    0.0646 C   0  0  0  0  0  0  0  0  0  0  0  0
   -3.2275   -1.9762   -1.2064 C   0  0  0  0  0  0  0  0  0  0  0  0
   -4.2732   -2.6039   -1.2457 O   0  0  0  0  0  0  0  0  0  0  0  0
   -2.8419   -1.2911   -2.3081 O   0  0  0  0  0  0  0  0  0  0  0  0
   -1.2098    0.2606   -0.0023 C   0  0  0  0  0  0  0  0  0  0  0  0
   -2.4994    1.0433   -0.0108 C   0  0  0  0  0  0  0  0  0  0  0  0
   -0.0116    0.9931   -0.0263 C   0  0  0  0  0  0  0  0  0  0  0  0
    3.3942    0.5094   -0.0130 H   0  0  0  0  0  0  0  0  0  0  0  0
    2.5223    1.8292    0.8503 H   0  0  0  0  0  0  0  0  0  0  0  0
    2.5209    1.7710   -0.9578 H   0  0  0  0  0  0  0  0  0  0  0  0
    2.2280   -1.5697    0.0600 H   0  0  0  0  0  0  0  0  0  0  0  0
    0.1668   -2.8758    0.1019 H   0  0  0  0  0  0  0  0  0  0  0  0
   -3.0262   -1.7118    0.9310 H   0  0  0  0  0  0  0  0  0  0  0  0
   -2.1356   -3.0900    0.2256 H   0  0  0  0  0  0  0  0  0  0  0  0
   -2.0073   -0.8098   -2.3739 H   0  0  0  0  0  0  0  0  0  0  0  0
   -3.4039    0.4082    0.0245 H   0  0  0  0  0  0  0  0  0  0  0  0
   -2.5515    1.6617   -0.9316 H   0  0  0  0  0  0  0  0  0  0  0  0
   -2.5283    1.7141    0.8739 H   0  0  0  0  0  0  0  0  0  0  0  0
   -0.0448    2.0764   -0.0575 H   0  0  0  0  0  0  0  0  0  0  0  0
  1  2  1  0  0  0  0
  1 13  1  0  0  0  0
  1 14  1  0  0  0  0
  1 15  1  0  0  0  0
  2  3  1  0  0  0  0
  2 12  2  0  0  0  0
  3  4  2  0  0  0  0
  3 16  1  0  0  0  0
  4  5  1  0  0  0  0
  4 17  1  0  0  0  0
  5  6  1  0  0  0  0
  5 10  2  0  0  0  0
  6  7  1  0  0  0  0
  6 18  1  0  0  0  0
  6 19  1  0  0  0  0
  7  8  2  0  0  0  0
  7  9  1  0  0  0  0
  9 20  1  0  0  0  0
 10 11  1  0  0  0  0
 10 12  1  0  0  0  0
 11 21  1  0  0  0  0
 11 22  1  0  0  0  0
 11 23  1  0  0  0  0
 12 24  1  0  0  0  0
M  END
