14

C          2.50700        0.53470       -0.00030
C          1.06910        0.14010       -0.00300
O          0.63110       -1.09860       -0.00550
N         -0.67150       -1.13150       -0.00740
C         -1.09880        0.14670       -0.00620
C         -2.53310        0.55670       -0.00770
C         -0.01210        0.99160       -0.00330
H          3.14880       -0.37110       -0.00100
H          2.72800        1.13510        0.90680
H          2.73060        1.13850       -0.90450
H         -3.18830       -0.33980       -0.00970
H         -2.74700        1.16270       -0.91280
H         -2.74960        1.16070        0.89800
H         -0.00860        2.07390       -0.00170
