 xtb: 6.5.0 (unknown)
          08122213093D

 23  0  0     0  0            999 V2000
   -4.6070    0.1435   -0.7401 C   0  0  0  0  0  0  0  0  0  0  0  0
   -3.8282   -0.5668    0.0672 C   0  0  0  0  0  0  0  0  0  0  0  0
   -2.3888   -0.4186    0.2403 C   0  0  0  0  0  0  0  0  0  0  0  0
   -1.6944   -1.3668    0.9948 C   0  0  0  0  0  0  0  0  0  0  0  0
   -0.3332   -1.2609    1.1689 C   0  0  0  0  0  0  0  0  0  0  0  0
    0.3918   -0.2189    0.5882 C   0  0  0  0  0  0  0  0  0  0  0  0
    1.8388   -0.2088    0.8142 C   0  0  0  0  0  0  0  0  0  0  0  0
    2.7816   -0.0097   -0.0896 C   0  0  0  0  0  0  0  0  0  0  0  0
    2.6212    0.2163   -1.3880 F   0  0  0  0  0  0  0  0  0  0  0  0
    4.0864   -0.0406    0.1858 F   0  0  0  0  0  0  0  0  0  0  0  0
   -0.2918    0.7645   -0.1375 C   0  0  0  0  0  0  0  0  0  0  0  0
    0.4004    1.9626   -0.7112 C   0  0  0  0  0  0  0  0  0  0  0  0
   -1.6639    0.6421   -0.2974 C   0  0  0  0  0  0  0  0  0  0  0  0
   -5.6649   -0.0447   -0.8047 H   0  0  0  0  0  0  0  0  0  0  0  0
   -4.2302    0.9300   -1.3712 H   0  0  0  0  0  0  0  0  0  0  0  0
   -4.2717   -1.3565    0.6619 H   0  0  0  0  0  0  0  0  0  0  0  0
   -2.2307   -2.1903    1.4436 H   0  0  0  0  0  0  0  0  0  0  0  0
    0.1936   -2.0041    1.7500 H   0  0  0  0  0  0  0  0  0  0  0  0
    2.1818   -0.4513    1.8100 H   0  0  0  0  0  0  0  0  0  0  0  0
    1.2483    2.2599   -0.0976 H   0  0  0  0  0  0  0  0  0  0  0  0
   -0.2913    2.7990   -0.7807 H   0  0  0  0  0  0  0  0  0  0  0  0
    0.7680    1.7469   -1.7138 H   0  0  0  0  0  0  0  0  0  0  0  0
   -2.1826    1.4103   -0.8506 H   0  0  0  0  0  0  0  0  0  0  0  0
M  END
