
 OpenBabel02012214153D

 23 23  0  0  0  0  0  0  0  0999 V2000
    1.3308   -1.0281    2.4392 C   0  0  0  0  0  0  0  0  0  0  0  0
    2.7458   -1.0262    2.2460 O   0  0  0  0  0  0  0  0  0  0  0  0
    3.1595   -0.3369    1.1513 C   0  0  0  0  0  0  0  0  0  0  0  0
    2.4416    0.2432    0.3573 O   0  0  0  0  0  0  0  0  0  0  0  0
    4.6410   -0.3671    1.0977 C   0  0  0  0  0  0  0  0  0  0  0  0
    5.3379   -1.4957    1.5555 C   0  0  0  0  0  0  0  0  0  0  0  0
    6.7327   -1.5205    1.5251 C   0  0  0  0  0  0  0  0  0  0  0  0
    7.5120   -2.6875    2.0409 C   0  0  0  0  0  0  0  0  0  0  0  0
    7.3772   -0.4066    1.0080 C   0  0  0  0  0  0  0  0  0  0  0  0
    6.7381    0.6940    0.5514 N   0  0  0  0  0  0  0  0  0  0  0  0
    5.3771    0.7123    0.6037 C   0  0  0  0  0  0  0  0  0  0  0  0
    4.7381    1.9902    0.1438 C   0  0  0  0  0  0  0  0  0  0  0  0
    1.1201   -1.5543    3.3748 H   0  0  0  0  0  0  0  0  0  0  0  0
    0.8363   -1.5607    1.6217 H   0  0  0  0  0  0  0  0  0  0  0  0
    0.9516   -0.0054    2.5252 H   0  0  0  0  0  0  0  0  0  0  0  0
    4.7924   -2.3540    1.9416 H   0  0  0  0  0  0  0  0  0  0  0  0
    6.8511   -3.4772    2.4136 H   0  0  0  0  0  0  0  0  0  0  0  0
    8.1550   -2.3727    2.8699 H   0  0  0  0  0  0  0  0  0  0  0  0
    8.1310   -3.1137    1.2460 H   0  0  0  0  0  0  0  0  0  0  0  0
    8.4619   -0.3577    0.9495 H   0  0  0  0  0  0  0  0  0  0  0  0
    5.5027    2.7267   -0.1274 H   0  0  0  0  0  0  0  0  0  0  0  0
    4.1354    2.4252    0.9474 H   0  0  0  0  0  0  0  0  0  0  0  0
    4.1167    1.8220   -0.7400 H   0  0  0  0  0  0  0  0  0  0  0  0
  1  2  1  0  0  0  0
  1 13  1  0  0  0  0
  1 14  1  0  0  0  0
  1 15  1  0  0  0  0
  2  3  1  0  0  0  0
  3  4  2  0  0  0  0
  3  5  1  0  0  0  0
  5  6  1  0  0  0  0
  5 11  2  0  0  0  0
  6  7  2  0  0  0  0
  6 16  1  0  0  0  0
  7  8  1  0  0  0  0
  7  9  1  0  0  0  0
  8 17  1  0  0  0  0
  8 18  1  0  0  0  0
  8 19  1  0  0  0  0
  9 10  2  0  0  0  0
  9 20  1  0  0  0  0
 10 11  1  0  0  0  0
 11 12  1  0  0  0  0
 12 21  1  0  0  0  0
 12 22  1  0  0  0  0
 12 23  1  0  0  0  0
M  END
