
  xtb     02032211353D
 xtb: 6.4.1 (23d549d)
 21 23  0     0  0            999 V2000
    3.7500   -0.9354   -0.1250 C   0  0  0  0  0  0  0  0  0  0  0  0
    2.6149   -1.5815    0.1307 C   0  0  0  0  0  0  0  0  0  0  0  0
    1.2666   -1.0768    0.0220 C   0  0  0  0  0  0  0  0  0  0  0  0
   -0.0037   -2.2617   -0.0006 S   0  0  0  0  0  0  0  0  0  0  0  0
   -1.2701   -1.0727   -0.0226 C   0  0  0  0  0  0  0  0  0  0  0  0
   -2.6200   -1.5730   -0.1312 C   0  0  0  0  0  0  0  0  0  0  0  0
   -3.7529   -0.9237    0.1269 C   0  0  0  0  0  0  0  0  0  0  0  0
   -0.7127    0.1879   -0.0070 C   0  0  0  0  0  0  0  0  0  0  0  0
   -1.4224    1.4338   -0.1638 N   0  0  0  0  0  0  0  0  0  0  0  0
   -2.4109    1.6240    0.5008 O   0  0  0  0  0  0  0  0  0  0  0  0
   -0.9642    2.1923   -0.9874 O   0  0  0  0  0  0  0  0  0  0  0  0
    0.7133    0.1856    0.0068 C   0  0  0  0  0  0  0  0  0  0  0  0
    1.4271    1.4291    0.1640 N   0  0  0  0  0  0  0  0  0  0  0  0
    2.4158    1.6165   -0.5010 O   0  0  0  0  0  0  0  0  0  0  0  0
    0.9717    2.1887    0.9881 O   0  0  0  0  0  0  0  0  0  0  0  0
    4.6946   -1.4356    0.0010 H   0  0  0  0  0  0  0  0  0  0  0  0
    3.7819    0.0828   -0.4703 H   0  0  0  0  0  0  0  0  0  0  0  0
    2.6507   -2.6231    0.4269 H   0  0  0  0  0  0  0  0  0  0  0  0
   -2.6595   -2.6139   -0.4292 H   0  0  0  0  0  0  0  0  0  0  0  0
   -3.7811    0.0940    0.4740 H   0  0  0  0  0  0  0  0  0  0  0  0
   -4.6992   -1.4206    0.0010 H   0  0  0  0  0  0  0  0  0  0  0  0
  1  2  2  0  0  0  0
  2  3  1  0  0  0  0
  3  4  1  0  0  0  0
  4  5  1  0  0  0  0
  5  6  1  0  0  0  0
  6  7  2  0  0  0  0
  5  8  4  0  0  0  0
  8  9  1  0  0  0  0
  9 10  4  0  0  0  0
  9 11  4  0  0  0  0
 10 11  1  0  0  0  0
  3 12  4  0  0  0  0
  8 12  4  0  0  0  0
 12 13  1  0  0  0  0
 13 14  4  0  0  0  0
 13 15  4  0  0  0  0
 14 15  1  0  0  0  0
  1 16  1  0  0  0  0
  1 17  1  0  0  0  0
  2 18  1  0  0  0  0
  6 19  1  0  0  0  0
  7 20  1  0  0  0  0
  7 21  1  0  0  0  0
M  END
