
 OpenBabel02032211253D

 22 22  0  0  0  0  0  0  0  0999 V2000
    2.6451    0.8836    0.8121 C   0  0  0  0  0  0  0  0  0  0  0  0
    2.3285   -0.1181   -0.0203 C   0  0  0  0  0  0  0  0  0  0  0  0
    3.0480   -1.3980   -0.0869 C   0  0  0  0  0  0  0  0  0  0  0  0
    2.6311   -2.3921   -0.9615 C   0  0  0  0  0  0  0  0  0  0  0  0
    3.3085   -3.6275   -1.0152 C   0  0  0  0  0  0  0  0  0  0  0  0
    2.7827   -4.6710   -1.9127 C   0  0  0  0  0  0  0  0  0  0  0  0
    2.2570   -4.4344   -3.1223 C   0  0  0  0  0  0  0  0  0  0  0  0
    4.3883   -3.8170   -0.1345 C   0  0  0  0  0  0  0  0  0  0  0  0
    5.1962   -5.0480    0.0442 C   0  0  0  0  0  0  0  0  0  0  0  0
    5.6857   -5.3428    1.1234 O   0  0  0  0  0  0  0  0  0  0  0  0
    5.4091   -5.7811   -1.0637 O   0  0  0  0  0  0  0  0  0  0  0  0
    4.7291   -2.7633    0.7127 C   0  0  0  0  0  0  0  0  0  0  0  0
    4.1001   -1.5631    0.7430 N   0  0  0  0  0  0  0  0  0  0  0  0
    2.0720    1.8041    0.8211 H   0  0  0  0  0  0  0  0  0  0  0  0
    3.4785    0.8066    1.5053 H   0  0  0  0  0  0  0  0  0  0  0  0
    1.4832    0.0030   -0.6911 H   0  0  0  0  0  0  0  0  0  0  0  0
    1.7573   -2.2146   -1.5815 H   0  0  0  0  0  0  0  0  0  0  0  0
    2.8220   -5.7005   -1.5540 H   0  0  0  0  0  0  0  0  0  0  0  0
    2.1740   -3.4377   -3.5509 H   0  0  0  0  0  0  0  0  0  0  0  0
    1.8721   -5.2485   -3.7322 H   0  0  0  0  0  0  0  0  0  0  0  0
    5.0968   -5.3887   -1.9001 H   0  0  0  0  0  0  0  0  0  0  0  0
    5.5491   -2.8516    1.4210 H   0  0  0  0  0  0  0  0  0  0  0  0
  1  2  2  0  0  0  0
  1 14  1  0  0  0  0
  1 15  1  0  0  0  0
  2  3  1  0  0  0  0
  2 16  1  0  0  0  0
  3  4  1  0  0  0  0
  3 13  2  0  0  0  0
  4  5  2  0  0  0  0
  4 17  1  0  0  0  0
  5  6  1  0  0  0  0
  5  8  1  0  0  0  0
  6  7  2  0  0  0  0
  6 18  1  0  0  0  0
  7 19  1  0  0  0  0
  7 20  1  0  0  0  0
  8  9  1  0  0  0  0
  8 12  2  0  0  0  0
  9 10  2  0  0  0  0
  9 11  1  0  0  0  0
 11 21  1  0  0  0  0
 12 13  1  0  0  0  0
 12 22  1  0  0  0  0
M  END
