20

C          2.53196        1.29460        0.35785
C          2.27460        0.02780        0.01480
C          3.12170       -1.10280        0.45250
C          4.24040       -0.87530        1.25500
N          5.00340       -1.92530        1.64850
C          4.71780       -3.20540        1.28640
N          5.57240       -4.24050        1.74700
C          3.58400       -3.44630        0.46900
C          3.18460       -4.80620        0.01420
C          3.44236       -5.90494        0.73438
N          2.82890       -2.37860        0.08470
H          1.88091        2.09068        0.01101
H          3.38303        1.55446        0.97958
H          1.40913       -0.17270       -0.61067
H          4.50670        0.12610        1.56830
H          6.38140       -4.00340        2.33940
H          5.42600       -5.23110        1.52110
H          2.66637       -4.95229       -0.92351
H          3.95735       -5.85719        1.68863
H          3.13251       -6.87763        0.36526
20

C          2.53196        1.29460        0.35785
C          2.27460        0.02780        0.01480
C          3.12170       -1.10280        0.45250
C          4.24040       -0.87530        1.25500
N          5.00340       -1.92530        1.64850
C          4.71780       -3.20540        1.28640
N          5.57240       -4.24050        1.74700
C          3.58400       -3.44630        0.46900
C          3.18460       -4.80620        0.01420
C          4.07673       -5.78517       -0.18085
N          2.82890       -2.37860        0.08470
H          1.88091        2.09068        0.01101
H          3.38303        1.55446        0.97958
H          1.40913       -0.17270       -0.61067
H          4.50670        0.12610        1.56830
H          6.38140       -4.00340        2.33940
H          5.42600       -5.23110        1.52110
H          2.14837       -5.05054       -0.17484
H          5.13888       -5.63400       -0.01632
H          3.74169       -6.76299       -0.51251
20

C          1.22127        0.45306        0.72073
C          2.27460        0.02780        0.01480
C          3.12170       -1.10280        0.45250
C          4.24040       -0.87530        1.25500
N          5.00340       -1.92530        1.64850
C          4.71780       -3.20540        1.28640
N          5.57240       -4.24050        1.74700
C          3.58400       -3.44630        0.46900
C          3.18460       -4.80620        0.01420
C          3.62864       -5.33525       -1.13265
N          2.82890       -2.37860        0.08470
H          0.63007        1.28796        0.35834
H          0.93632       -0.01643        1.65711
H          2.51338        0.53690       -0.91485
H          4.50670        0.12610        1.56830
H          6.38140       -4.00340        2.33940
H          5.42600       -5.23110        1.52110
H          2.51547       -5.41846        0.60293
H          4.30403       -4.79590       -1.78918
H          3.31239       -6.33139       -1.42603
20

C          2.49553        0.69369       -1.12383
C          2.27460        0.02780        0.01480
C          3.12170       -1.10280        0.45250
C          4.24040       -0.87530        1.25500
N          5.00340       -1.92530        1.64850
C          4.71780       -3.20540        1.28640
N          5.57240       -4.24050        1.74700
C          3.58400       -3.44630        0.46900
C          3.18460       -4.80620        0.01420
C          2.34620       -5.57738        0.71756
N          2.82890       -2.37860        0.08470
H          1.84526        1.51663       -1.40278
H          3.31493        0.43266       -1.78629
H          1.43846        0.33268        0.63799
H          4.50670        0.12610        1.56830
H          6.38140       -4.00340        2.33940
H          5.42600       -5.23110        1.52110
H          3.56263       -5.21985       -0.91057
H          1.91548       -5.24707        1.65748
H          2.08089       -6.56315        0.34846
20

C          1.22127        0.45306        0.72073
C          2.27460        0.02780        0.01480
C          3.12170       -1.10280        0.45250
C          4.24040       -0.87530        1.25500
N          5.00340       -1.92530        1.64850
C          4.71780       -3.20540        1.28640
N          5.57240       -4.24050        1.74700
C          3.58400       -3.44630        0.46900
C          3.18460       -4.80620        0.01420
C          2.34620       -5.57738        0.71756
N          2.82890       -2.37860        0.08470
H          0.63007        1.28796        0.35834
H          0.93632       -0.01643        1.65711
H          2.51338        0.53690       -0.91485
H          4.50670        0.12610        1.56830
H          6.38140       -4.00340        2.33940
H          5.42600       -5.23110        1.52110
H          3.56263       -5.21985       -0.91057
H          1.91548       -5.24707        1.65748
H          2.08089       -6.56315        0.34846
20

C          2.49553        0.69369       -1.12383
C          2.27460        0.02780        0.01480
C          3.12170       -1.10280        0.45250
C          4.24040       -0.87530        1.25500
N          5.00340       -1.92530        1.64850
C          4.71780       -3.20540        1.28640
N          5.57240       -4.24050        1.74700
C          3.58400       -3.44630        0.46900
C          3.18460       -4.80620        0.01420
C          3.62864       -5.33525       -1.13265
N          2.82890       -2.37860        0.08470
H          1.84526        1.51663       -1.40278
H          3.31493        0.43266       -1.78629
H          1.43846        0.33268        0.63799
H          4.50670        0.12610        1.56830
H          6.38140       -4.00340        2.33940
H          5.42600       -5.23110        1.52110
H          2.51547       -5.41846        0.60293
H          4.30403       -4.79590       -1.78918
H          3.31239       -6.33139       -1.42603
20

C          1.22127        0.45306        0.72073
C          2.27460        0.02780        0.01480
C          3.12170       -1.10280        0.45250
C          4.24040       -0.87530        1.25500
N          5.00340       -1.92530        1.64850
C          4.71780       -3.20540        1.28640
N          5.57240       -4.24050        1.74700
C          3.58400       -3.44630        0.46900
C          3.18460       -4.80620        0.01420
C          4.07673       -5.78517       -0.18085
N          2.82890       -2.37860        0.08470
H          0.63007        1.28796        0.35834
H          0.93632       -0.01643        1.65711
H          2.51338        0.53690       -0.91485
H          4.50670        0.12610        1.56830
H          6.38140       -4.00340        2.33940
H          5.42600       -5.23110        1.52110
H          2.14837       -5.05054       -0.17484
H          5.13888       -5.63400       -0.01632
H          3.74169       -6.76299       -0.51251
20

C          2.49553        0.69369       -1.12383
C          2.27460        0.02780        0.01480
C          3.12170       -1.10280        0.45250
C          4.24040       -0.87530        1.25500
N          5.00340       -1.92530        1.64850
C          4.71780       -3.20540        1.28640
N          5.57240       -4.24050        1.74700
C          3.58400       -3.44630        0.46900
C          3.18460       -4.80620        0.01420
C          3.44236       -5.90494        0.73438
N          2.82890       -2.37860        0.08470
H          1.84526        1.51663       -1.40278
H          3.31493        0.43266       -1.78629
H          1.43846        0.33268        0.63799
H          4.50670        0.12610        1.56830
H          6.38140       -4.00340        2.33940
H          5.42600       -5.23110        1.52110
H          2.66637       -4.95229       -0.92351
H          3.95735       -5.85719        1.68863
H          3.13251       -6.87763        0.36526
20

C          1.22127        0.45306        0.72073
C          2.27460        0.02780        0.01480
C          3.12170       -1.10280        0.45250
C          4.24040       -0.87530        1.25500
N          5.00340       -1.92530        1.64850
C          4.71780       -3.20540        1.28640
N          5.57240       -4.24050        1.74700
C          3.58400       -3.44630        0.46900
C          3.18460       -4.80620        0.01420
C          3.44236       -5.90494        0.73438
N          2.82890       -2.37860        0.08470
H          0.63007        1.28796        0.35834
H          0.93632       -0.01643        1.65711
H          2.51338        0.53690       -0.91485
H          4.50670        0.12610        1.56830
H          6.38140       -4.00340        2.33940
H          5.42600       -5.23110        1.52110
H          2.66637       -4.95229       -0.92351
H          3.95735       -5.85719        1.68863
H          3.13251       -6.87763        0.36526
20

C          2.49553        0.69369       -1.12383
C          2.27460        0.02780        0.01480
C          3.12170       -1.10280        0.45250
C          4.24040       -0.87530        1.25500
N          5.00340       -1.92530        1.64850
C          4.71780       -3.20540        1.28640
N          5.57240       -4.24050        1.74700
C          3.58400       -3.44630        0.46900
C          3.18460       -4.80620        0.01420
C          4.07673       -5.78517       -0.18085
N          2.82890       -2.37860        0.08470
H          1.84526        1.51663       -1.40278
H          3.31493        0.43266       -1.78629
H          1.43846        0.33268        0.63799
H          4.50670        0.12610        1.56830
H          6.38140       -4.00340        2.33940
H          5.42600       -5.23110        1.52110
H          2.14837       -5.05054       -0.17484
H          5.13888       -5.63400       -0.01632
H          3.74169       -6.76299       -0.51251
