
 OpenBabel02032210433D

 23 24  0  0  0  0  0  0  0  0999 V2000
    2.4841    1.4842   -0.0007 C   0  0  0  0  0  0  0  0  0  0  0  0
    1.5704    0.3463   -0.0371 N   0  0  0  0  0  0  0  0  0  0  0  0
    1.9182   -0.9598   -0.1226 C   0  0  0  0  0  0  0  0  0  0  0  0
    0.7793   -1.7570   -0.1315 C   0  0  0  0  0  0  0  0  0  0  0  0
    0.2244    0.3828    0.0093 C   0  0  0  0  0  0  0  0  0  0  0  0
   -0.2853   -0.8850   -0.0466 C   0  0  0  0  0  0  0  0  0  0  0  0
   -1.6544   -1.1308   -0.0139 C   0  0  0  0  0  0  0  0  0  0  0  0
   -2.5411   -0.0313    0.0854 C   0  0  0  0  0  0  0  0  0  0  0  0
   -4.0031   -0.3362    0.1263 C   0  0  0  0  0  0  0  0  0  0  0  0
   -5.0144    0.5373    0.2730 C   0  0  0  0  0  0  0  0  0  0  0  0
   -4.8308    1.8728    0.4156 F   0  0  0  0  0  0  0  0  0  0  0  0
   -6.2892    0.0670    0.2913 F   0  0  0  0  0  0  0  0  0  0  0  0
   -1.9970    1.2863    0.1407 C   0  0  0  0  0  0  0  0  0  0  0  0
   -0.6063    1.4968    0.1015 C   0  0  0  0  0  0  0  0  0  0  0  0
    3.5392    1.1398   -0.0522 H   0  0  0  0  0  0  0  0  0  0  0  0
    2.3389    2.0502    0.9432 H   0  0  0  0  0  0  0  0  0  0  0  0
    2.2837    2.1525   -0.8644 H   0  0  0  0  0  0  0  0  0  0  0  0
    2.9377   -1.3198   -0.1752 H   0  0  0  0  0  0  0  0  0  0  0  0
    0.7392   -2.8368   -0.1908 H   0  0  0  0  0  0  0  0  0  0  0  0
   -2.0210   -2.1494   -0.0590 H   0  0  0  0  0  0  0  0  0  0  0  0
   -4.2868   -1.3819    0.0334 H   0  0  0  0  0  0  0  0  0  0  0  0
   -2.6158    2.1627    0.2110 H   0  0  0  0  0  0  0  0  0  0  0  0
   -0.1991    2.4988    0.1440 H   0  0  0  0  0  0  0  0  0  0  0  0
  1  2  1  0  0  0  0
  1 15  1  0  0  0  0
  1 16  1  0  0  0  0
  1 17  1  0  0  0  0
  2  3  1  0  0  0  0
  2  5  1  0  0  0  0
  3  4  2  0  0  0  0
  3 18  1  0  0  0  0
  4  6  1  0  0  0  0
  4 19  1  0  0  0  0
  5  6  1  0  0  0  0
  5 14  2  0  0  0  0
  6  7  2  0  0  0  0
  7  8  1  0  0  0  0
  7 20  1  0  0  0  0
  8  9  1  0  0  0  0
  8 13  2  0  0  0  0
  9 10  2  0  0  0  0
  9 21  1  0  0  0  0
 10 11  1  0  0  0  0
 10 12  1  0  0  0  0
 13 14  1  0  0  0  0
 13 22  1  0  0  0  0
 14 23  1  0  0  0  0
M  END
