
  xtb     02032210433D
 xtb: 6.4.1 (23d549d)
 23 24  0     0  0            999 V2000
    2.4885    1.4266   -0.2851 c   0  0  0  0  0  0  0  0  0  0  0  0
    1.5742    0.3439   -0.0625 n   0  0  0  0  0  0  0  0  0  0  0  0
    1.9054   -0.9761    0.0749 c   0  0  0  0  0  0  0  0  0  0  0  0
    0.7898   -1.7309    0.2694 c   0  0  0  0  0  0  0  0  0  0  0  0
    0.2198    0.4585    0.0436 c   0  0  0  0  0  0  0  0  0  0  0  0
   -0.3171   -0.8375    0.2542 c   0  0  0  0  0  0  0  0  0  0  0  0
   -1.6907   -1.0083    0.3917 c   0  0  0  0  0  0  0  0  0  0  0  0
   -2.5178    0.1043    0.3200 c   0  0  0  0  0  0  0  0  0  0  0  0
   -3.9642    0.0281    0.4450 c   0  0  0  0  0  0  0  0  0  0  0  0
   -4.7229   -1.0345    0.6684 c   0  0  0  0  0  0  0  0  0  0  0  0
   -4.3446   -2.2990    0.8341 f   0  0  0  0  0  0  0  0  0  0  0  0
   -6.0543   -0.9714    0.7635 f   0  0  0  0  0  0  0  0  0  0  0  0
   -1.9577    1.3830    0.1135 c   0  0  0  0  0  0  0  0  0  0  0  0
   -0.6045    1.5772   -0.0243 c   0  0  0  0  0  0  0  0  0  0  0  0
    3.5017    1.0351   -0.3550 h   0  0  0  0  0  0  0  0  0  0  0  0
    2.4441    2.1452    0.5377 h   0  0  0  0  0  0  0  0  0  0  0  0
    2.2468    1.9480   -1.2149 h   0  0  0  0  0  0  0  0  0  0  0  0
    2.9331   -1.2832    0.0214 h   0  0  0  0  0  0  0  0  0  0  0  0
    0.7498   -2.7925    0.4077 h   0  0  0  0  0  0  0  0  0  0  0  0
   -2.0901   -1.9964    0.5488 h   0  0  0  0  0  0  0  0  0  0  0  0
   -4.5064    0.9579    0.3476 h   0  0  0  0  0  0  0  0  0  0  0  0
   -2.6201    2.2347    0.0634 h   0  0  0  0  0  0  0  0  0  0  0  0
   -0.1995    2.5659   -0.1804 h   0  0  0  0  0  0  0  0  0  0  0  0
  1  2  1  0  0  0  0
  2  3  1  0  0  0  0
  3  4  2  0  0  0  0
  2  5  1  0  0  0  0
  4  6  4  0  0  0  0
  5  6  4  0  0  0  0
  6  7  4  0  0  0  0
  7  8  4  0  0  0  0
  8  9  1  0  0  0  0
  9 10  2  0  0  0  0
 10 11  1  0  0  0  0
 10 12  1  0  0  0  0
  8 13  4  0  0  0  0
  5 14  4  0  0  0  0
 13 14  2  0  0  0  0
  1 15  1  0  0  0  0
  1 16  1  0  0  0  0
  1 17  1  0  0  0  0
  3 18  1  0  0  0  0
  4 19  1  0  0  0  0
  7 20  1  0  0  0  0
  9 21  1  0  0  0  0
 13 22  1  0  0  0  0
 14 23  1  0  0  0  0
M  END
