 xtb: 6.5.0 (unknown)
          08112216353D

 17  0  0     0  0            999 V2000
    0.8510   -3.4142    0.0010 c   0  0  0  0  0  0  0  0  0  0  0  0
    0.3111   -2.2770   -0.4187 c   0  0  0  0  0  0  0  0  0  0  0  0
    0.7985   -0.9508   -0.0768 c   0  0  0  0  0  0  0  0  0  0  0  0
    2.0829   -0.6824    0.2987 c   0  0  0  0  0  0  0  0  0  0  0  0
    2.3580    0.9814    0.6072 s   0  0  0  0  0  0  0  0  0  0  0  0
    0.7293    1.3521    0.2384 c   0  0  0  0  0  0  0  0  0  0  0  0
    0.0017    0.2475   -0.1126 c   0  0  0  0  0  0  0  0  0  0  0  0
   -1.4052    0.2477   -0.4501 c   0  0  0  0  0  0  0  0  0  0  0  0
   -2.1930    1.3077   -0.5632 c   0  0  0  0  0  0  0  0  0  0  0  0
   -1.8598    2.5826   -0.3928 f   0  0  0  0  0  0  0  0  0  0  0  0
   -3.4850    1.2318   -0.8761 f   0  0  0  0  0  0  0  0  0  0  0  0
    0.4524   -4.3686   -0.2963 h   0  0  0  0  0  0  0  0  0  0  0  0
    1.6993   -3.4353    0.6632 h   0  0  0  0  0  0  0  0  0  0  0  0
   -0.5534   -2.3096   -1.0684 h   0  0  0  0  0  0  0  0  0  0  0  0
    2.8981   -1.3718    0.3868 h   0  0  0  0  0  0  0  0  0  0  0  0
    0.3981    2.3680    0.3077 h   0  0  0  0  0  0  0  0  0  0  0  0
   -1.8771   -0.7056   -0.6271 h   0  0  0  0  0  0  0  0  0  0  0  0
M  END
