
  xtb     02032211353D
 xtb: 6.4.1 (23d549d)
 48 48  0     0  0            999 V2000
    3.2583    2.8453    1.5147 C   0  0  0  0  0  0  0  0  0  0  0  0
    3.4421    1.6566    0.9496 C   0  0  0  0  0  0  0  0  0  0  0  0
    2.3950    0.7921    0.4552 C   0  0  0  0  0  0  0  0  0  0  0  0
    1.0411    0.9970    0.5293 C   0  0  0  0  0  0  0  0  0  0  0  0
    0.3684   -0.0440   -0.0492 N   0  0  0  0  0  0  0  0  0  0  0  0
   -1.3999   -0.1507   -0.1365 Si  0  0  0  0  0  0  0  0  0  0  0  0
   -2.0592    0.0986    1.6642 C   0  0  0  0  0  0  0  0  0  0  0  0
   -1.0703   -0.4232    2.7104 C   0  0  0  0  0  0  0  0  0  0  0  0
   -2.4351    1.5380    2.0140 C   0  0  0  0  0  0  0  0  0  0  0  0
   -1.9459    1.1248   -1.4752 C   0  0  0  0  0  0  0  0  0  0  0  0
   -3.4649    1.1680   -1.6423 C   0  0  0  0  0  0  0  0  0  0  0  0
   -1.4008    2.5368   -1.2656 C   0  0  0  0  0  0  0  0  0  0  0  0
   -1.9939   -1.8867   -0.7250 C   0  0  0  0  0  0  0  0  0  0  0  0
   -1.6663   -2.1840   -2.1883 C   0  0  0  0  0  0  0  0  0  0  0  0
   -1.5156   -3.0320    0.1671 C   0  0  0  0  0  0  0  0  0  0  0  0
    1.3082   -0.9268   -0.4988 C   0  0  0  0  0  0  0  0  0  0  0  0
    2.5697   -0.4685   -0.2155 C   0  0  0  0  0  0  0  0  0  0  0  0
    3.8274   -1.1099   -0.5240 C   0  0  0  0  0  0  0  0  0  0  0  0
    3.9672   -2.2992   -1.1001 C   0  0  0  0  0  0  0  0  0  0  0  0
    4.0869    3.4381    1.8622 H   0  0  0  0  0  0  0  0  0  0  0  0
    2.2789    3.2711    1.6498 H   0  0  0  0  0  0  0  0  0  0  0  0
    4.4511    1.2819    0.8370 H   0  0  0  0  0  0  0  0  0  0  0  0
    0.5029    1.8164    0.9591 H   0  0  0  0  0  0  0  0  0  0  0  0
   -2.9749   -0.4974    1.7536 H   0  0  0  0  0  0  0  0  0  0  0  0
   -0.1627    0.1751    2.7130 H   0  0  0  0  0  0  0  0  0  0  0  0
   -0.7887   -1.4537    2.5142 H   0  0  0  0  0  0  0  0  0  0  0  0
   -1.5133   -0.3726    3.7040 H   0  0  0  0  0  0  0  0  0  0  0  0
   -1.5652    2.1885    1.9732 H   0  0  0  0  0  0  0  0  0  0  0  0
   -2.8363    1.5846    3.0258 H   0  0  0  0  0  0  0  0  0  0  0  0
   -3.1902    1.9257    1.3359 H   0  0  0  0  0  0  0  0  0  0  0  0
   -1.5259    0.7724   -2.4248 H   0  0  0  0  0  0  0  0  0  0  0  0
   -3.9458    1.5292   -0.7370 H   0  0  0  0  0  0  0  0  0  0  0  0
   -3.8621    0.1813   -1.8650 H   0  0  0  0  0  0  0  0  0  0  0  0
   -3.7382    1.8366   -2.4573 H   0  0  0  0  0  0  0  0  0  0  0  0
   -1.7924    2.9789   -0.3541 H   0  0  0  0  0  0  0  0  0  0  0  0
   -1.6901    3.1763   -2.0988 H   0  0  0  0  0  0  0  0  0  0  0  0
   -0.3154    2.5264   -1.2100 H   0  0  0  0  0  0  0  0  0  0  0  0
   -3.0876   -1.8698   -0.6481 H   0  0  0  0  0  0  0  0  0  0  0  0
   -0.5945   -2.1878   -2.3646 H   0  0  0  0  0  0  0  0  0  0  0  0
   -2.1131   -1.4435   -2.8459 H   0  0  0  0  0  0  0  0  0  0  0  0
   -2.0562   -3.1618   -2.4694 H   0  0  0  0  0  0  0  0  0  0  0  0
   -0.4308   -3.0740    0.2126 H   0  0  0  0  0  0  0  0  0  0  0  0
   -1.8752   -3.9855   -0.2188 H   0  0  0  0  0  0  0  0  0  0  0  0
   -1.8956   -2.9167    1.1784 H   0  0  0  0  0  0  0  0  0  0  0  0
    1.0161   -1.8257   -0.9989 H   0  0  0  0  0  0  0  0  0  0  0  0
    4.7152   -0.5544   -0.2511 H   0  0  0  0  0  0  0  0  0  0  0  0
    3.1221   -2.8991   -1.3911 H   0  0  0  0  0  0  0  0  0  0  0  0
    4.9388   -2.7172   -1.3007 H   0  0  0  0  0  0  0  0  0  0  0  0
  1  2  2  0  0  0  0
  2  3  1  0  0  0  0
  3  4  2  0  0  0  0
  4  5  4  0  0  0  0
  5  6  1  0  0  0  0
  6  7  1  0  0  0  0
  7  8  1  0  0  0  0
  7  9  1  0  0  0  0
  6 10  1  0  0  0  0
 10 11  1  0  0  0  0
 10 12  1  0  0  0  0
  6 13  1  0  0  0  0
 13 14  1  0  0  0  0
 13 15  1  0  0  0  0
  5 16  4  0  0  0  0
  3 17  1  0  0  0  0
 16 17  2  0  0  0  0
 17 18  1  0  0  0  0
 18 19  2  0  0  0  0
  1 20  1  0  0  0  0
  1 21  1  0  0  0  0
  2 22  1  0  0  0  0
  4 23  1  0  0  0  0
  7 24  1  0  0  0  0
  8 25  1  0  0  0  0
  8 26  1  0  0  0  0
  8 27  1  0  0  0  0
  9 28  1  0  0  0  0
  9 29  1  0  0  0  0
  9 30  1  0  0  0  0
 10 31  1  0  0  0  0
 11 32  1  0  0  0  0
 11 33  1  0  0  0  0
 11 34  1  0  0  0  0
 12 35  1  0  0  0  0
 12 36  1  0  0  0  0
 12 37  1  0  0  0  0
 13 38  1  0  0  0  0
 14 39  1  0  0  0  0
 14 40  1  0  0  0  0
 14 41  1  0  0  0  0
 15 42  1  0  0  0  0
 15 43  1  0  0  0  0
 15 44  1  0  0  0  0
 16 45  1  0  0  0  0
 18 46  1  0  0  0  0
 19 47  1  0  0  0  0
 19 48  1  0  0  0  0
M  END
