
  xtb     02032211353D
 xtb: 6.4.1 (23d549d)
 33 34  0     0  0            999 V2000
   -4.1260    2.0847   -0.0699 C   0  0  0  0  0  0  0  0  0  0  0  0
   -2.9083    2.1865    0.4549 C   0  0  0  0  0  0  0  0  0  0  0  0
   -1.8963    1.1681    0.3930 C   0  0  0  0  0  0  0  0  0  0  0  0
   -0.6290    1.2330    0.9018 C   0  0  0  0  0  0  0  0  0  0  0  0
    0.1679    0.0814    0.6912 C   0  0  0  0  0  0  0  0  0  0  0  0
    1.5941    0.1193    1.1965 C   0  0  0  0  0  0  0  0  0  0  0  0
    2.4866   -1.0968    0.9333 C   0  0  0  0  0  0  0  0  0  0  0  0
    2.8294   -1.2666   -0.5452 C   0  0  0  0  0  0  0  0  0  0  0  0
    3.5076   -0.0131   -1.0866 C   0  0  0  0  0  0  0  0  0  0  0  0
    2.6135    1.1984   -0.8501 C   0  0  0  0  0  0  0  0  0  0  0  0
    2.3267    1.3546    0.6389 C   0  0  0  0  0  0  0  0  0  0  0  0
   -0.5374   -0.9022    0.0306 C   0  0  0  0  0  0  0  0  0  0  0  0
   -0.2163   -2.2658   -0.3225 C   0  0  0  0  0  0  0  0  0  0  0  0
   -0.8486   -2.9632   -1.2622 C   0  0  0  0  0  0  0  0  0  0  0  0
   -2.1536   -0.3635   -0.3728 S   0  0  0  0  0  0  0  0  0  0  0  0
   -4.8445    2.8812    0.0067 H   0  0  0  0  0  0  0  0  0  0  0  0
   -4.4370    1.1960   -0.5940 H   0  0  0  0  0  0  0  0  0  0  0  0
   -2.6096    3.0869    0.9776 H   0  0  0  0  0  0  0  0  0  0  0  0
   -0.2825    2.0978    1.4407 H   0  0  0  0  0  0  0  0  0  0  0  0
    1.5185    0.2425    2.2870 H   0  0  0  0  0  0  0  0  0  0  0  0
    2.0316   -2.0016    1.3373 H   0  0  0  0  0  0  0  0  0  0  0  0
    3.4179   -0.9412    1.4862 H   0  0  0  0  0  0  0  0  0  0  0  0
    1.9230   -1.4516   -1.1226 H   0  0  0  0  0  0  0  0  0  0  0  0
    3.4871   -2.1305   -0.6677 H   0  0  0  0  0  0  0  0  0  0  0  0
    3.7090   -0.1308   -2.1533 H   0  0  0  0  0  0  0  0  0  0  0  0
    4.4641    0.1378   -0.5795 H   0  0  0  0  0  0  0  0  0  0  0  0
    1.6723    1.0694   -1.3896 H   0  0  0  0  0  0  0  0  0  0  0  0
    3.0973    2.1016   -1.2283 H   0  0  0  0  0  0  0  0  0  0  0  0
    1.7462    2.2612    0.8074 H   0  0  0  0  0  0  0  0  0  0  0  0
    3.2727    1.4654    1.1751 H   0  0  0  0  0  0  0  0  0  0  0  0
    0.5637   -2.7444    0.2485 H   0  0  0  0  0  0  0  0  0  0  0  0
   -1.6356   -2.5313   -1.8582 H   0  0  0  0  0  0  0  0  0  0  0  0
   -0.5949   -3.9885   -1.4666 H   0  0  0  0  0  0  0  0  0  0  0  0
  1  2  2  0  0  0  0
  2  3  1  0  0  0  0
  3  4  2  0  0  0  0
  4  5  4  0  0  0  0
  5  6  1  0  0  0  0
  6  7  1  0  0  0  0
  7  8  1  0  0  0  0
  8  9  1  0  0  0  0
  9 10  1  0  0  0  0
  6 11  1  0  0  0  0
 10 11  1  0  0  0  0
  5 12  4  0  0  0  0
 12 13  1  0  0  0  0
 13 14  2  0  0  0  0
  3 15  1  0  0  0  0
 12 15  1  0  0  0  0
  1 16  1  0  0  0  0
  1 17  1  0  0  0  0
  2 18  1  0  0  0  0
  4 19  1  0  0  0  0
  6 20  1  0  0  0  0
  7 21  1  0  0  0  0
  7 22  1  0  0  0  0
  8 23  1  0  0  0  0
  8 24  1  0  0  0  0
  9 25  1  0  0  0  0
  9 26  1  0  0  0  0
 10 27  1  0  0  0  0
 10 28  1  0  0  0  0
 11 29  1  0  0  0  0
 11 30  1  0  0  0  0
 13 31  1  0  0  0  0
 14 32  1  0  0  0  0
 14 33  1  0  0  0  0
M  END
