18

C          2.00460       -2.52380        0.00610
C          1.26750       -1.21710        0.00280
C          1.96460        0.00240        0.01190
C          1.26450        1.22020        0.00960
C          1.99850        2.52870        0.01980
C         -0.13790        1.21120       -0.00230
C         -0.83500       -0.00100       -0.01170
Cl        -2.58920       -0.00300       -0.02640
C         -0.13490       -1.21140       -0.00900
H          3.10500       -2.37200        0.01630
H          1.73870       -3.10450       -0.90220
H          1.72270       -3.10870        0.90680
H          3.04800        0.00370        0.02110
H          3.09920        2.37940        0.02770
H          1.71630        3.10720        0.92460
H          1.73010        3.11440       -0.88450
H         -0.68670        2.14530       -0.00430
H         -0.68150       -2.14680       -0.01600
