
 OpenBabel02012214123D

 19 20  0  0  0  0  0  0  0  0999 V2000
    0.9549   -0.0272    0.0386 C   0  0  0  0  0  0  0  0  0  0  0  0
    2.4588    0.0170    0.0378 C   0  0  0  0  0  0  0  0  0  0  0  0
    3.1562    1.2426    0.0380 C   0  0  0  0  0  0  0  0  0  0  0  0
    2.4775    2.4184    0.0389 F   0  0  0  0  0  0  0  0  0  0  0  0
    4.5625    1.2736    0.0372 C   0  0  0  0  0  0  0  0  0  0  0  0
    5.1889    2.4780    0.0374 F   0  0  0  0  0  0  0  0  0  0  0  0
    5.3130    0.0797    0.0362 C   0  0  0  0  0  0  0  0  0  0  0  0
    6.8174    0.1016    0.0353 C   0  0  0  0  0  0  0  0  0  0  0  0
    4.6243   -1.1407    0.0360 C   0  0  0  0  0  0  0  0  0  0  0  0
    5.2392   -2.3521    0.0351 N   0  0  0  0  0  0  0  0  0  0  0  0
    3.9617   -3.3996    0.0354 S   0  0  0  0  0  0  0  0  0  0  0  0
    2.6395   -2.4093    0.0366 N   0  0  0  0  0  0  0  0  0  0  0  0
    3.2005   -1.1719    0.0368 C   0  0  0  0  0  0  0  0  0  0  0  0
    0.5077    0.9884    0.0393 H   0  0  0  0  0  0  0  0  0  0  0  0
    0.5982   -0.5635    0.9430 H   0  0  0  0  0  0  0  0  0  0  0  0
    0.5973   -0.5627   -0.8660 H   0  0  0  0  0  0  0  0  0  0  0  0
    7.2196    1.1360    0.0355 H   0  0  0  0  0  0  0  0  0  0  0  0
    7.1972   -0.4176   -0.8697 H   0  0  0  0  0  0  0  0  0  0  0  0
    7.1983   -0.4184    0.9393 H   0  0  0  0  0  0  0  0  0  0  0  0
  1  2  1  0  0  0  0
  1 14  1  0  0  0  0
  1 15  1  0  0  0  0
  1 16  1  0  0  0  0
  2  3  2  0  0  0  0
  2 13  1  0  0  0  0
  3  4  1  0  0  0  0
  3  5  1  0  0  0  0
  5  6  1  0  0  0  0
  5  7  2  0  0  0  0
  7  8  1  0  0  0  0
  7  9  1  0  0  0  0
  8 17  1  0  0  0  0
  8 18  1  0  0  0  0
  8 19  1  0  0  0  0
  9 10  2  0  0  0  0
  9 13  1  0  0  0  0
 10 11  1  0  0  0  0
 11 12  1  0  0  0  0
 12 13  2  0  0  0  0
M  END
