
  xtb     02032211353D
 xtb: 6.4.1 (23d549d)
 30 31  0     0  0            999 V2000
   -1.2528   -2.6275    1.5802 C   0  0  0  0  0  0  0  0  0  0  0  0
   -0.7999   -1.3978    1.3785 C   0  0  0  0  0  0  0  0  0  0  0  0
   -1.4353   -0.3995    0.5211 C   0  0  0  0  0  0  0  0  0  0  0  0
   -2.8166   -0.3798    0.3426 C   0  0  0  0  0  0  0  0  0  0  0  0
   -3.4241    0.5861   -0.4367 C   0  0  0  0  0  0  0  0  0  0  0  0
   -2.6571    1.5651   -1.0463 C   0  0  0  0  0  0  0  0  0  0  0  0
   -1.2849    1.5644   -0.8754 C   0  0  0  0  0  0  0  0  0  0  0  0
   -0.6611    0.5866   -0.1093 C   0  0  0  0  0  0  0  0  0  0  0  0
    0.8064    0.6244    0.0459 C   0  0  0  0  0  0  0  0  0  0  0  0
    1.3771    1.7571    0.6176 C   0  0  0  0  0  0  0  0  0  0  0  0
    2.7387    1.8375    0.8426 C   0  0  0  0  0  0  0  0  0  0  0  0
    3.5528    0.7695    0.5038 C   0  0  0  0  0  0  0  0  0  0  0  0
    2.9992   -0.3582   -0.0705 C   0  0  0  0  0  0  0  0  0  0  0  0
    1.6317   -0.4458   -0.3280 C   0  0  0  0  0  0  0  0  0  0  0  0
    1.1337   -1.6458   -1.0032 C   0  0  0  0  0  0  0  0  0  0  0  0
    0.1867   -1.6750   -1.9293 C   0  0  0  0  0  0  0  0  0  0  0  0
   -0.7437   -3.3165    2.2323 H   0  0  0  0  0  0  0  0  0  0  0  0
   -2.1360   -3.0019    1.0901 H   0  0  0  0  0  0  0  0  0  0  0  0
    0.1145   -1.0792    1.8633 H   0  0  0  0  0  0  0  0  0  0  0  0
   -3.4217   -1.1208    0.8432 H   0  0  0  0  0  0  0  0  0  0  0  0
   -4.4971    0.5825   -0.5613 H   0  0  0  0  0  0  0  0  0  0  0  0
   -3.1266    2.3280   -1.6499 H   0  0  0  0  0  0  0  0  0  0  0  0
   -0.6784    2.3202   -1.3550 H   0  0  0  0  0  0  0  0  0  0  0  0
    0.7325    2.5758    0.9055 H   0  0  0  0  0  0  0  0  0  0  0  0
    3.1615    2.7248    1.2903 H   0  0  0  0  0  0  0  0  0  0  0  0
    4.6162    0.8163    0.6873 H   0  0  0  0  0  0  0  0  0  0  0  0
    3.6355   -1.1880   -0.3452 H   0  0  0  0  0  0  0  0  0  0  0  0
    1.6525   -2.5608   -0.7425 H   0  0  0  0  0  0  0  0  0  0  0  0
   -0.3306   -0.7879   -2.2519 H   0  0  0  0  0  0  0  0  0  0  0  0
   -0.1024   -2.5957   -2.4071 H   0  0  0  0  0  0  0  0  0  0  0  0
  1  2  2  0  0  0  0
  2  3  1  0  0  0  0
  3  4  4  0  0  0  0
  4  5  4  0  0  0  0
  5  6  4  0  0  0  0
  6  7  4  0  0  0  0
  3  8  4  0  0  0  0
  7  8  4  0  0  0  0
  8  9  1  0  0  0  0
  9 10  4  0  0  0  0
 10 11  4  0  0  0  0
 11 12  4  0  0  0  0
 12 13  4  0  0  0  0
  9 14  4  0  0  0  0
 13 14  4  0  0  0  0
 14 15  1  0  0  0  0
 15 16  2  0  0  0  0
  1 17  1  0  0  0  0
  1 18  1  0  0  0  0
  2 19  1  0  0  0  0
  4 20  1  0  0  0  0
  5 21  1  0  0  0  0
  6 22  1  0  0  0  0
  7 23  1  0  0  0  0
 10 24  1  0  0  0  0
 11 25  1  0  0  0  0
 12 26  1  0  0  0  0
 13 27  1  0  0  0  0
 15 28  1  0  0  0  0
 16 29  1  0  0  0  0
 16 30  1  0  0  0  0
M  END
