26

C          1.00626        0.22469        0.42481
C          2.19560        0.01170       -0.15660
C          2.99200       -1.25790       -0.06880
C          4.39920       -1.24710       -0.12460
C          5.15150       -2.43120       -0.04280
C          6.65700       -2.33030       -0.10600
C          4.49440       -3.67770        0.09920
C          5.29030       -4.94760        0.18820
C          6.52743       -5.05523        0.69486
C          3.08690       -3.68850        0.15460
C          2.33400       -2.50530        0.07330
C          0.82900       -2.60540        0.13550
H          0.51663        1.18502        0.29666
H          0.49416       -0.51030        1.02938
H          2.59127        0.84385       -0.72749
H          4.93610       -0.31830       -0.22850
H          7.00280       -1.27990       -0.20940
H          7.03690       -2.89790       -0.98120
H          7.10020       -2.73980        0.82620
H          4.85666       -5.86864       -0.18369
H          7.08665       -4.22106        1.09403
H          7.01333       -6.02582        0.70851
H          2.54960       -4.61730        0.25880
H          0.48310       -3.65590        0.23830
H          0.38640       -2.19560       -0.79700
H          0.44840       -2.03820        1.01050
26

C          1.73536        0.56355       -1.28867
C          2.19560        0.01170       -0.15660
C          2.99200       -1.25790       -0.06880
C          4.39920       -1.24710       -0.12460
C          5.15150       -2.43120       -0.04280
C          6.65700       -2.33030       -0.10600
C          4.49440       -3.67770        0.09920
C          5.29030       -4.94760        0.18820
C          5.73777       -5.50615        1.32247
C          3.08690       -3.68850        0.15460
C          2.33400       -2.50530        0.07330
C          0.82900       -2.60540        0.13550
H          1.16653        1.48665       -1.23669
H          1.89243        0.13865       -2.26986
H          1.95420        0.54673        0.75467
H          4.93610       -0.31830       -0.22850
H          7.00280       -1.27990       -0.20940
H          7.03690       -2.89790       -0.98120
H          7.10020       -2.73980        0.82620
H          5.54279       -5.47645       -0.72352
H          5.56945       -5.08713        2.30429
H          6.30786       -6.42852        1.27152
H          2.54960       -4.61730        0.25880
H          0.48310       -3.65590        0.23830
H          0.38640       -2.19560       -0.79700
H          0.44840       -2.03820        1.01050
26

C          1.82002        0.76703        0.88569
C          2.19560        0.01170       -0.15660
C          2.99200       -1.25790       -0.06880
C          4.39920       -1.24710       -0.12460
C          5.15150       -2.43120       -0.04280
C          6.65700       -2.33030       -0.10600
C          4.49440       -3.67770        0.09920
C          5.29030       -4.94760        0.18820
C          5.65513       -5.71040       -0.85286
C          3.08690       -3.68850        0.15460
C          2.33400       -2.50530        0.07330
C          0.82900       -2.60540        0.13550
H          1.24491        1.67026        0.70736
H          2.06118        0.53377        1.91301
H          1.88752        0.37453       -1.13044
H          4.93610       -0.31830       -0.22850
H          7.00280       -1.27990       -0.20940
H          7.03690       -2.89790       -0.98120
H          7.10020       -2.73980        0.82620
H          5.60659       -5.30435        1.16152
H          5.40424       -5.48388       -1.87933
H          6.23066       -6.61325       -0.67404
H          2.54960       -4.61730        0.25880
H          0.48310       -3.65590        0.23830
H          0.38640       -2.19560       -0.79700
H          0.44840       -2.03820        1.01050
26

C          1.82002        0.76703        0.88569
C          2.19560        0.01170       -0.15660
C          2.99200       -1.25790       -0.06880
C          4.39920       -1.24710       -0.12460
C          5.15150       -2.43120       -0.04280
C          6.65700       -2.33030       -0.10600
C          4.49440       -3.67770        0.09920
C          5.29030       -4.94760        0.18820
C          5.73777       -5.50615        1.32247
C          3.08690       -3.68850        0.15460
C          2.33400       -2.50530        0.07330
C          0.82900       -2.60540        0.13550
H          1.24491        1.67026        0.70736
H          2.06118        0.53377        1.91301
H          1.88752        0.37453       -1.13044
H          4.93610       -0.31830       -0.22850
H          7.00280       -1.27990       -0.20940
H          7.03690       -2.89790       -0.98120
H          7.10020       -2.73980        0.82620
H          5.54279       -5.47645       -0.72352
H          5.56945       -5.08713        2.30429
H          6.30786       -6.42852        1.27152
H          2.54960       -4.61730        0.25880
H          0.48310       -3.65590        0.23830
H          0.38640       -2.19560       -0.79700
H          0.44840       -2.03820        1.01050
26

C          1.73536        0.56355       -1.28867
C          2.19560        0.01170       -0.15660
C          2.99200       -1.25790       -0.06880
C          4.39920       -1.24710       -0.12460
C          5.15150       -2.43120       -0.04280
C          6.65700       -2.33030       -0.10600
C          4.49440       -3.67770        0.09920
C          5.29030       -4.94760        0.18820
C          5.65513       -5.71040       -0.85286
C          3.08690       -3.68850        0.15460
C          2.33400       -2.50530        0.07330
C          0.82900       -2.60540        0.13550
H          1.16653        1.48665       -1.23669
H          1.89243        0.13865       -2.26986
H          1.95420        0.54673        0.75467
H          4.93610       -0.31830       -0.22850
H          7.00280       -1.27990       -0.20940
H          7.03690       -2.89790       -0.98120
H          7.10020       -2.73980        0.82620
H          5.60659       -5.30435        1.16152
H          5.40424       -5.48388       -1.87933
H          6.23066       -6.61325       -0.67404
H          2.54960       -4.61730        0.25880
H          0.48310       -3.65590        0.23830
H          0.38640       -2.19560       -0.79700
H          0.44840       -2.03820        1.01050
26

C          2.60856        1.21824        0.25773
C          2.19560        0.01170       -0.15660
C          2.99200       -1.25790       -0.06880
C          4.39920       -1.24710       -0.12460
C          5.15150       -2.43120       -0.04280
C          6.65700       -2.33030       -0.10600
C          4.49440       -3.67770        0.09920
C          5.29030       -4.94760        0.18820
C          5.73777       -5.50615        1.32247
C          3.08690       -3.68850        0.15460
C          2.33400       -2.50530        0.07330
C          0.82900       -2.60540        0.13550
H          1.94929        2.07319        0.14453
H          3.57672        1.40070        0.70195
H          1.20229       -0.01789       -0.58948
H          4.93610       -0.31830       -0.22850
H          7.00280       -1.27990       -0.20940
H          7.03690       -2.89790       -0.98120
H          7.10020       -2.73980        0.82620
H          5.54279       -5.47645       -0.72352
H          5.56945       -5.08713        2.30429
H          6.30786       -6.42852        1.27152
H          2.54960       -4.61730        0.25880
H          0.48310       -3.65590        0.23830
H          0.38640       -2.19560       -0.79700
H          0.44840       -2.03820        1.01050
26

C          2.56668        1.11759       -0.81785
C          2.19560        0.01170       -0.15660
C          2.99200       -1.25790       -0.06880
C          4.39920       -1.24710       -0.12460
C          5.15150       -2.43120       -0.04280
C          6.65700       -2.33030       -0.10600
C          4.49440       -3.67770        0.09920
C          5.29030       -4.94760        0.18820
C          5.73777       -5.50615        1.32247
C          3.08690       -3.68850        0.15460
C          2.33400       -2.50530        0.07330
C          0.82900       -2.60540        0.13550
H          1.91052        1.98236       -0.81713
H          3.49325        1.20524       -1.36717
H          1.23527        0.06729        0.34302
H          4.93610       -0.31830       -0.22850
H          7.00280       -1.27990       -0.20940
H          7.03690       -2.89790       -0.98120
H          7.10020       -2.73980        0.82620
H          5.54279       -5.47645       -0.72352
H          5.56945       -5.08713        2.30429
H          6.30786       -6.42852        1.27152
H          2.54960       -4.61730        0.25880
H          0.48310       -3.65590        0.23830
H          0.38640       -2.19560       -0.79700
H          0.44840       -2.03820        1.01050
26

C          2.56668        1.11759       -0.81785
C          2.19560        0.01170       -0.15660
C          2.99200       -1.25790       -0.06880
C          4.39920       -1.24710       -0.12460
C          5.15150       -2.43120       -0.04280
C          6.65700       -2.33030       -0.10600
C          4.49440       -3.67770        0.09920
C          5.29030       -4.94760        0.18820
C          6.52743       -5.05523        0.69486
C          3.08690       -3.68850        0.15460
C          2.33400       -2.50530        0.07330
C          0.82900       -2.60540        0.13550
H          1.91052        1.98236       -0.81713
H          3.49325        1.20524       -1.36717
H          1.23527        0.06729        0.34302
H          4.93610       -0.31830       -0.22850
H          7.00280       -1.27990       -0.20940
H          7.03690       -2.89790       -0.98120
H          7.10020       -2.73980        0.82620
H          4.85666       -5.86864       -0.18369
H          7.08665       -4.22106        1.09403
H          7.01333       -6.02582        0.70851
H          2.54960       -4.61730        0.25880
H          0.48310       -3.65590        0.23830
H          0.38640       -2.19560       -0.79700
H          0.44840       -2.03820        1.01050
26

C          2.60856        1.21824        0.25773
C          2.19560        0.01170       -0.15660
C          2.99200       -1.25790       -0.06880
C          4.39920       -1.24710       -0.12460
C          5.15150       -2.43120       -0.04280
C          6.65700       -2.33030       -0.10600
C          4.49440       -3.67770        0.09920
C          5.29030       -4.94760        0.18820
C          6.52743       -5.05523        0.69486
C          3.08690       -3.68850        0.15460
C          2.33400       -2.50530        0.07330
C          0.82900       -2.60540        0.13550
H          1.94929        2.07319        0.14453
H          3.57672        1.40070        0.70195
H          1.20229       -0.01789       -0.58948
H          4.93610       -0.31830       -0.22850
H          7.00280       -1.27990       -0.20940
H          7.03690       -2.89790       -0.98120
H          7.10020       -2.73980        0.82620
H          4.85666       -5.86864       -0.18369
H          7.08665       -4.22106        1.09403
H          7.01333       -6.02582        0.70851
H          2.54960       -4.61730        0.25880
H          0.48310       -3.65590        0.23830
H          0.38640       -2.19560       -0.79700
H          0.44840       -2.03820        1.01050
26

C          0.96348        0.12187       -0.67397
C          2.19560        0.01170       -0.15660
C          2.99200       -1.25790       -0.06880
C          4.39920       -1.24710       -0.12460
C          5.15150       -2.43120       -0.04280
C          6.65700       -2.33030       -0.10600
C          4.49440       -3.67770        0.09920
C          5.29030       -4.94760        0.18820
C          5.73777       -5.50615        1.32247
C          3.08690       -3.68850        0.15460
C          2.33400       -2.50530        0.07330
C          0.82900       -2.60540        0.13550
H          0.47702        1.09224       -0.68574
H          0.40889       -0.70997       -1.08437
H          2.62496        0.93087        0.22513
H          4.93610       -0.31830       -0.22850
H          7.00280       -1.27990       -0.20940
H          7.03690       -2.89790       -0.98120
H          7.10020       -2.73980        0.82620
H          5.54279       -5.47645       -0.72352
H          5.56945       -5.08713        2.30429
H          6.30786       -6.42852        1.27152
H          2.54960       -4.61730        0.25880
H          0.48310       -3.65590        0.23830
H          0.38640       -2.19560       -0.79700
H          0.44840       -2.03820        1.01050
