49

C          2.85784       -1.27972       -0.13800
C          2.34350       -0.05490        0.01080
C          3.14780        1.19110       -0.01780
C          2.79540        2.34480        0.70900
C          3.61780        3.47630        0.67050
C          4.77280        3.49900       -0.12840
C          5.08850        2.36210       -0.89560
C          4.30400        1.21290       -0.80150
S          6.54130        2.30480       -1.94050
C          6.57880        4.05020       -2.36240
C          7.07720        4.42250       -3.61430
C          7.22190        5.77330       -3.96340
C          7.76560        6.10220       -5.30590
C          8.62575        5.33250       -5.98147
C          6.85570        6.75970       -3.02510
C          6.34440        6.39010       -1.77780
C          6.20190        5.03210       -1.42890
N          5.61840        4.65910       -0.18450
C          5.93260        5.39090        1.04670
C          5.42336        6.83982        0.89136
C          3.91346        6.94163        0.67129
C          3.17544        6.34097        1.88001
C          1.65550        6.39999        1.70693
C          1.21858        5.60595        0.47720
H          2.20394       -2.14385       -0.08637
H          3.92114       -1.44378       -0.26561
H          1.27453        0.02718        0.19521
H          1.91100        2.36780        1.33090
H          3.33220        4.34200        1.25360
H          4.58790        0.33160       -1.36800
H          7.37860        3.65140       -4.31270
H          7.42797        7.01934       -5.78472
H          8.97585        4.38108       -5.60002
H          8.96285        5.64293       -6.96467
H          6.92340        7.81110       -3.26210
H          6.03230        7.17110       -1.09760
H          7.02160        5.38083        1.26157
H          5.40145        4.93209        1.90608
H          5.93187        7.31000        0.02011
H          5.69168        7.41460        1.80270
H          3.63047        6.38734       -0.24933
H          3.63388        8.01141        0.55451
H          3.45789        6.89702        2.80159
H          3.48384        5.27824        1.99903
H          1.33401        7.45720        1.58422
H          1.15969        5.97573        2.60727
H          1.68795        6.02540       -0.43898
H          0.11556        5.66089        0.36706
H          1.51409        4.53964        0.57928
49

C          1.22008       -0.20284        0.71997
C          2.34350       -0.05490        0.01080
C          3.14780        1.19110       -0.01780
C          2.79540        2.34480        0.70900
C          3.61780        3.47630        0.67050
C          4.77280        3.49900       -0.12840
C          5.08850        2.36210       -0.89560
C          4.30400        1.21290       -0.80150
S          6.54130        2.30480       -1.94050
C          6.57880        4.05020       -2.36240
C          7.07720        4.42250       -3.61430
C          7.22190        5.77330       -3.96340
C          7.76560        6.10220       -5.30590
C          8.62575        5.33250       -5.98147
C          6.85570        6.75970       -3.02510
C          6.34440        6.39010       -1.77780
C          6.20190        5.03210       -1.42890
N          5.61840        4.65910       -0.18450
C          5.93260        5.39090        1.04670
C          4.74591        5.23050        2.02079
C          4.93593        5.96421        3.34900
C          3.71087        5.72610        4.24846
C          3.51424        4.24071        4.56252
C          4.72694        3.67755        5.30133
H          0.67846       -1.14171        0.67347
H          0.80397        0.60454        1.31054
H          2.66742       -0.89033       -0.60610
H          1.91100        2.36780        1.33090
H          3.33220        4.34200        1.25360
H          4.58790        0.33160       -1.36800
H          7.37860        3.65140       -4.31270
H          7.42797        7.01934       -5.78472
H          8.97585        4.38108       -5.60002
H          8.96285        5.64293       -6.96467
H          6.92340        7.81110       -3.26210
H          6.03230        7.17110       -1.09760
H          6.12970        6.46453        0.84505
H          6.83165        4.95381        1.52818
H          4.60298        4.14893        2.24103
H          3.82488        5.61051        1.53067
H          5.05325        7.05336        3.16232
H          5.85034        5.57858        3.85039
H          2.79834        6.11450        3.74378
H          3.85111        6.28101        5.20296
H          3.37545        3.67373        3.61628
H          2.61024        4.10885        5.19644
H          5.64079        3.78145        4.67707
H          4.56734        2.60108        5.51933
H          4.88103        4.21666        6.26071
49

C          1.22008       -0.20284        0.71997
C          2.34350       -0.05490        0.01080
C          3.14780        1.19110       -0.01780
C          2.79540        2.34480        0.70900
C          3.61780        3.47630        0.67050
C          4.77280        3.49900       -0.12840
C          5.08850        2.36210       -0.89560
C          4.30400        1.21290       -0.80150
S          6.54130        2.30480       -1.94050
C          6.57880        4.05020       -2.36240
C          7.07720        4.42250       -3.61430
C          7.22190        5.77330       -3.96340
C          7.76560        6.10220       -5.30590
C          9.06482        6.27334       -5.57315
C          6.85570        6.75970       -3.02510
C          6.34440        6.39010       -1.77780
C          6.20190        5.03210       -1.42890
N          5.61840        4.65910       -0.18450
C          5.93260        5.39090        1.04670
C          7.33408        6.01909        0.89157
C          8.44257        4.99663        0.63775
C          9.79384        5.72180        0.51662
C         10.14886        6.48350        1.79624
C         10.25962        5.52798        2.98298
H          0.67846       -1.14171        0.67347
H          0.80397        0.60454        1.31054
H          2.66742       -0.89033       -0.60610
H          1.91100        2.36780        1.33090
H          3.33220        4.34200        1.25360
H          4.58790        0.33160       -1.36800
H          7.37860        3.65140       -4.31270
H          7.06569        6.18988       -6.13465
H          9.83256        6.15724       -4.81791
H          9.37699        6.49931       -6.58714
H          6.92340        7.81110       -3.26210
H          6.03230        7.17110       -1.09760
H          5.89833        4.72789        1.93632
H          5.20342        6.21405        1.19464
H          7.58492        6.57678        1.82151
H          7.31294        6.74077        0.04798
H          8.23328        4.44223       -0.30229
H          8.47668        4.27853        1.48593
H          9.75597        6.43836       -0.33391
H         10.58905        4.97058        0.31173
H          9.36027        7.23633        2.01414
H         11.11976        7.00861        1.66188
H          9.29266        5.00518        3.14819
H         10.51599        6.09704        3.90071
H         11.05283        4.77183        2.79901
49

C          1.22008       -0.20284        0.71997
C          2.34350       -0.05490        0.01080
C          3.14780        1.19110       -0.01780
C          2.79540        2.34480        0.70900
C          3.61780        3.47630        0.67050
C          4.77280        3.49900       -0.12840
C          5.08850        2.36210       -0.89560
C          4.30400        1.21290       -0.80150
S          6.54130        2.30480       -1.94050
C          6.57880        4.05020       -2.36240
C          7.07720        4.42250       -3.61430
C          7.22190        5.77330       -3.96340
C          7.76560        6.10220       -5.30590
C          7.01806        6.27871       -6.40075
C          6.85570        6.75970       -3.02510
C          6.34440        6.39010       -1.77780
C          6.20190        5.03210       -1.42890
N          5.61840        4.65910       -0.18450
C          5.93260        5.39090        1.04670
C          7.46338        5.36991        1.24443
C          8.24043        6.03361        0.10676
C          9.74927        5.94304        0.39258
C         10.12220        6.62844        1.70970
C          9.73194        8.10511        1.68199
H          0.67846       -1.14171        0.67347
H          0.80397        0.60454        1.31054
H          2.66742       -0.89033       -0.60610
H          1.91100        2.36780        1.33090
H          3.33220        4.34200        1.25360
H          4.58790        0.33160       -1.36800
H          7.37860        3.65140       -4.31270
H          8.84178        6.22987       -5.40555
H          5.93679        6.21752       -6.38090
H          7.49741        6.53031       -7.34076
H          6.92340        7.81110       -3.26210
H          6.03230        7.17110       -1.09760
H          5.41929        4.94991        1.92660
H          5.61487        6.44957        0.94965
H          7.80289        4.31297        1.32400
H          7.70991        5.88715        2.19554
H          7.94220        7.10068        0.02151
H          8.00702        5.51141       -0.84669
H         10.31413        6.42129       -0.43837
H         10.04185        4.87069        0.44861
H         11.21895        6.55022        1.87437
H          9.59570        6.13017        2.55289
H         10.26235        8.62836        0.85706
H         10.01050        8.58531        2.64304
H          8.63604        8.21364        1.53359
49

C          2.66397       -1.16653       -0.65887
C          2.34350       -0.05490        0.01080
C          3.14780        1.19110       -0.01780
C          2.79540        2.34480        0.70900
C          3.61780        3.47630        0.67050
C          4.77280        3.49900       -0.12840
C          5.08850        2.36210       -0.89560
C          4.30400        1.21290       -0.80150
S          6.54130        2.30480       -1.94050
C          6.57880        4.05020       -2.36240
C          7.07720        4.42250       -3.61430
C          7.22190        5.77330       -3.96340
C          7.76560        6.10220       -5.30590
C          8.13120        5.19291       -6.21596
C          6.85570        6.75970       -3.02510
C          6.34440        6.39010       -1.77780
C          6.20190        5.03210       -1.42890
N          5.61840        4.65910       -0.18450
C          5.93260        5.39090        1.04670
C          4.60773        5.87922        1.67047
C          4.79242        6.67818        2.96125
C          3.41728        7.09982        3.50687
C          2.64404        7.95808        2.50231
C          1.29130        8.37705        3.07519
H          2.03211       -2.04407       -0.57134
H          3.56479       -1.23651       -1.25671
H          1.45538       -0.07938        0.63855
H          1.91100        2.36780        1.33090
H          3.33220        4.34200        1.25360
H          4.58790        0.33160       -1.36800
H          7.37860        3.65140       -4.31270
H          7.85433        7.15178       -5.57961
H          8.03139        4.12804       -6.04451
H          8.50706        5.52134       -7.17905
H          6.92340        7.81110       -3.26210
H          6.03230        7.17110       -1.09760
H          6.61106        6.24744        0.85124
H          6.42418        4.71340        1.77506
H          3.96911        4.99676        1.89886
H          4.07435        6.51267        0.93077
H          5.40438        7.58315        2.75781
H          5.31508        6.04412        3.71027
H          3.55229        7.67637        4.44901
H          2.82345        6.18604        3.73281
H          2.47441        7.37905        1.56848
H          3.23226        8.86959        2.25819
H          0.67756        7.48025        3.30909
H          0.74509        8.99660        2.33384
H          1.43093        8.97191        4.00331
49

C          1.22008       -0.20284        0.71997
C          2.34350       -0.05490        0.01080
C          3.14780        1.19110       -0.01780
C          2.79540        2.34480        0.70900
C          3.61780        3.47630        0.67050
C          4.77280        3.49900       -0.12840
C          5.08850        2.36210       -0.89560
C          4.30400        1.21290       -0.80150
S          6.54130        2.30480       -1.94050
C          6.57880        4.05020       -2.36240
C          7.07720        4.42250       -3.61430
C          7.22190        5.77330       -3.96340
C          7.76560        6.10220       -5.30590
C          8.13120        5.19291       -6.21596
C          6.85570        6.75970       -3.02510
C          6.34440        6.39010       -1.77780
C          6.20190        5.03210       -1.42890
N          5.61840        4.65910       -0.18450
C          5.93260        5.39090        1.04670
C          5.22191        4.68696        2.22238
C          5.45291        5.36222        3.57488
C          4.91299        6.80200        3.53028
C          3.40957        6.83851        3.24382
C          2.63187        6.10350        4.33402
H          0.67846       -1.14171        0.67347
H          0.80397        0.60454        1.31054
H          2.66742       -0.89033       -0.60610
H          1.91100        2.36780        1.33090
H          3.33220        4.34200        1.25360
H          4.58790        0.33160       -1.36800
H          7.37860        3.65140       -4.31270
H          7.85433        7.15178       -5.57961
H          8.03139        4.12804       -6.04451
H          8.50706        5.52134       -7.17905
H          6.92340        7.81110       -3.26210
H          6.03230        7.17110       -1.09760
H          5.61966        6.45392        0.98152
H          7.02498        5.35816        1.23851
H          5.59047        3.63909        2.29206
H          4.13087        4.65925        2.01799
H          6.54010        5.38044        3.80410
H          4.92233        4.78668        4.36449
H          5.44732        7.37481        2.73992
H          5.10496        7.28960        4.51214
H          3.20344        6.35164        2.26578
H          3.06259        7.89404        3.20009
H          2.94931        5.03932        4.38282
H          1.54555        6.13918        4.10943
H          2.80737        6.57902        5.32289
49

C          2.85784       -1.27972       -0.13800
C          2.34350       -0.05490        0.01080
C          3.14780        1.19110       -0.01780
C          2.79540        2.34480        0.70900
C          3.61780        3.47630        0.67050
C          4.77280        3.49900       -0.12840
C          5.08850        2.36210       -0.89560
C          4.30400        1.21290       -0.80150
S          6.54130        2.30480       -1.94050
C          6.57880        4.05020       -2.36240
C          7.07720        4.42250       -3.61430
C          7.22190        5.77330       -3.96340
C          7.76560        6.10220       -5.30590
C          7.01806        6.27871       -6.40075
C          6.85570        6.75970       -3.02510
C          6.34440        6.39010       -1.77780
C          6.20190        5.03210       -1.42890
N          5.61840        4.65910       -0.18450
C          5.93260        5.39090        1.04670
C          6.66497        4.42960        2.00709
C          5.85157        3.18773        2.37414
C          6.66139        2.31007        3.34388
C          7.99271        1.86457        2.73334
C          7.76131        1.06682        1.45127
H          2.20394       -2.14385       -0.08637
H          3.92114       -1.44378       -0.26561
H          1.27453        0.02718        0.19521
H          1.91100        2.36780        1.33090
H          3.33220        4.34200        1.25360
H          4.58790        0.33160       -1.36800
H          7.37860        3.65140       -4.31270
H          8.84178        6.22987       -5.40555
H          5.93679        6.21752       -6.38090
H          7.49741        6.53031       -7.34076
H          6.92340        7.81110       -3.26210
H          6.03230        7.17110       -1.09760
H          5.01742        5.79823        1.52494
H          6.61601        6.23550        0.82140
H          6.90783        4.97370        2.94714
H          7.61720        4.10718        1.53569
H          5.61771        2.60765        1.45563
H          4.90206        3.50442        2.85828
H          6.06661        1.40944        3.61477
H          6.86622        2.89121        4.27070
H          8.54172        1.22591        3.45915
H          8.61352        2.75659        2.49809
H          7.15783        0.15844        1.66639
H          8.73592        0.75165        1.02396
H          7.22644        1.68693        0.70017
49

C          1.22008       -0.20284        0.71997
C          2.34350       -0.05490        0.01080
C          3.14780        1.19110       -0.01780
C          2.79540        2.34480        0.70900
C          3.61780        3.47630        0.67050
C          4.77280        3.49900       -0.12840
C          5.08850        2.36210       -0.89560
C          4.30400        1.21290       -0.80150
S          6.54130        2.30480       -1.94050
C          6.57880        4.05020       -2.36240
C          7.07720        4.42250       -3.61430
C          7.22190        5.77330       -3.96340
C          7.76560        6.10220       -5.30590
C          7.01806        6.27871       -6.40075
C          6.85570        6.75970       -3.02510
C          6.34440        6.39010       -1.77780
C          6.20190        5.03210       -1.42890
N          5.61840        4.65910       -0.18450
C          5.93260        5.39090        1.04670
C          6.66497        4.42960        2.00709
C          7.03877        5.06435        3.34721
C          5.76273        5.52591        4.07191
C          6.07800        6.18702        5.41623
C          6.82230        5.21969        6.33487
H          0.67846       -1.14171        0.67347
H          0.80397        0.60454        1.31054
H          2.66742       -0.89033       -0.60610
H          1.91100        2.36780        1.33090
H          3.33220        4.34200        1.25360
H          4.58790        0.33160       -1.36800
H          7.37860        3.65140       -4.31270
H          8.84178        6.22987       -5.40555
H          5.93679        6.21752       -6.38090
H          7.49741        6.53031       -7.34076
H          6.92340        7.81110       -3.26210
H          6.03230        7.17110       -1.09760
H          5.01742        5.79823        1.52494
H          6.61601        6.23550        0.82140
H          7.60079        4.07549        1.51965
H          6.01659        3.54843        2.19700
H          7.70470        5.93731        3.17591
H          7.57297        4.31346        3.96933
H          5.09664        4.65140        4.24459
H          5.22660        6.25766        3.42711
H          5.13197        6.49626        5.91171
H          6.70854        7.08795        5.25133
H          6.20149        4.31836        6.52940
H          7.04110        5.71497        7.30369
H          7.78156        4.90488        5.87065
49

C          2.66397       -1.16653       -0.65887
C          2.34350       -0.05490        0.01080
C          3.14780        1.19110       -0.01780
C          2.79540        2.34480        0.70900
C          3.61780        3.47630        0.67050
C          4.77280        3.49900       -0.12840
C          5.08850        2.36210       -0.89560
C          4.30400        1.21290       -0.80150
S          6.54130        2.30480       -1.94050
C          6.57880        4.05020       -2.36240
C          7.07720        4.42250       -3.61430
C          7.22190        5.77330       -3.96340
C          7.76560        6.10220       -5.30590
C          9.06482        6.27334       -5.57315
C          6.85570        6.75970       -3.02510
C          6.34440        6.39010       -1.77780
C          6.20190        5.03210       -1.42890
N          5.61840        4.65910       -0.18450
C          5.93260        5.39090        1.04670
C          7.21902        4.78942        1.65182
C          7.65378        5.45374        2.95882
C          7.90412        6.95206        2.71626
C          8.98784        7.18544        1.66044
C         10.30793        6.54655        2.08801
H          2.03211       -2.04407       -0.57134
H          3.56479       -1.23651       -1.25671
H          1.45538       -0.07938        0.63855
H          1.91100        2.36780        1.33090
H          3.33220        4.34200        1.25360
H          4.58790        0.33160       -1.36800
H          7.37860        3.65140       -4.31270
H          7.06569        6.18988       -6.13465
H          9.83256        6.15724       -4.81791
H          9.37699        6.49931       -6.58714
H          6.92340        7.81110       -3.26210
H          6.03230        7.17110       -1.09760
H          5.09757        5.34081        1.77636
H          6.13075        6.45741        0.81334
H          8.04825        4.89683        0.91727
H          7.05662        3.70680        1.83746
H          8.58645        4.97687        3.32972
H          6.85087        5.32530        3.71717
H          8.21507        7.43575        3.66895
H          6.95722        7.42463        2.37167
H          9.14589        8.27720        1.52195
H          8.66795        6.74284        0.69182
H         10.65724        6.98847        3.04630
H         11.08097        6.72662        1.31226
H         10.18325        5.45021        2.21947
49

C          1.22008       -0.20284        0.71997
C          2.34350       -0.05490        0.01080
C          3.14780        1.19110       -0.01780
C          2.79540        2.34480        0.70900
C          3.61780        3.47630        0.67050
C          4.77280        3.49900       -0.12840
C          5.08850        2.36210       -0.89560
C          4.30400        1.21290       -0.80150
S          6.54130        2.30480       -1.94050
C          6.57880        4.05020       -2.36240
C          7.07720        4.42250       -3.61430
C          7.22190        5.77330       -3.96340
C          7.76560        6.10220       -5.30590
C          8.13120        5.19291       -6.21596
C          6.85570        6.75970       -3.02510
C          6.34440        6.39010       -1.77780
C          6.20190        5.03210       -1.42890
N          5.61840        4.65910       -0.18450
C          5.93260        5.39090        1.04670
C          5.22191        4.68696        2.22238
C          5.66066        3.23647        2.42768
C          7.16790        3.19281        2.73235
C          7.66821        1.75962        2.93064
C          7.44323        0.92742        1.66951
H          0.67846       -1.14171        0.67347
H          0.80397        0.60454        1.31054
H          2.66742       -0.89033       -0.60610
H          1.91100        2.36780        1.33090
H          3.33220        4.34200        1.25360
H          4.58790        0.33160       -1.36800
H          7.37860        3.65140       -4.31270
H          7.85433        7.15178       -5.57961
H          8.03139        4.12804       -6.04451
H          8.50706        5.52134       -7.17905
H          6.92340        7.81110       -3.26210
H          6.03230        7.17110       -1.09760
H          5.61966        6.45392        0.98152
H          7.02498        5.35816        1.23851
H          4.12451        4.69292        2.03688
H          5.42032        5.25620        3.15486
H          5.45046        2.64752        1.50909
H          5.09291        2.80137        3.27891
H          7.37800        3.78148        3.65300
H          7.72080        3.65357        1.88343
H          7.12150        1.28629        3.77513
H          8.75454        1.77203        3.16767
H          6.35991        0.88514        1.42401
H          7.81031       -0.10732        1.83189
H          7.99183        1.36970        0.81032
