
 OpenBabel02032210553D

 20 20  0  0  0  0  0  0  0  0999 V2000
    1.0070    0.1181   -0.0015 C   0  0  0  0  0  0  0  0  0  0  0  0
    2.3290   -0.0990    0.0038 C   0  0  0  0  0  0  0  0  0  0  0  0
    3.0199   -1.0680   -0.8642 C   0  0  0  0  0  0  0  0  0  0  0  0
    4.1817   -1.6931   -0.3973 C   0  0  0  0  0  0  0  0  0  0  0  0
    4.6417   -1.4247    0.8354 F   0  0  0  0  0  0  0  0  0  0  0  0
    4.8772   -2.5956   -1.1926 C   0  0  0  0  0  0  0  0  0  0  0  0
    5.9881   -3.1825   -0.7241 F   0  0  0  0  0  0  0  0  0  0  0  0
    4.4250   -2.8893   -2.4730 C   0  0  0  0  0  0  0  0  0  0  0  0
    5.1192   -3.7633   -3.2200 F   0  0  0  0  0  0  0  0  0  0  0  0
    3.2705   -2.2892   -2.9901 C   0  0  0  0  0  0  0  0  0  0  0  0
    2.8556   -2.6099   -4.3666 C   0  0  0  0  0  0  0  0  0  0  0  0
    1.5945   -2.5952   -4.8194 C   0  0  0  0  0  0  0  0  0  0  0  0
    2.5995   -1.3602   -2.1749 C   0  0  0  0  0  0  0  0  0  0  0  0
    1.5392   -0.7046   -2.6771 F   0  0  0  0  0  0  0  0  0  0  0  0
    0.5639    0.8459    0.6708 H   0  0  0  0  0  0  0  0  0  0  0  0
    0.3277   -0.4130   -0.6614 H   0  0  0  0  0  0  0  0  0  0  0  0
    2.9524    0.4476    0.7095 H   0  0  0  0  0  0  0  0  0  0  0  0
    3.6530   -2.9031   -5.0488 H   0  0  0  0  0  0  0  0  0  0  0  0
    0.7445   -2.3371   -4.1946 H   0  0  0  0  0  0  0  0  0  0  0  0
    1.3797   -2.8536   -5.8523 H   0  0  0  0  0  0  0  0  0  0  0  0
  1  2  2  0  0  0  0
  1 15  1  0  0  0  0
  1 16  1  0  0  0  0
  2  3  1  0  0  0  0
  2 17  1  0  0  0  0
  3  4  1  0  0  0  0
  3 13  2  0  0  0  0
  4  5  1  0  0  0  0
  4  6  2  0  0  0  0
  6  7  1  0  0  0  0
  6  8  1  0  0  0  0
  8  9  1  0  0  0  0
  8 10  2  0  0  0  0
 10 11  1  0  0  0  0
 10 13  1  0  0  0  0
 11 12  2  0  0  0  0
 11 18  1  0  0  0  0
 12 19  1  0  0  0  0
 12 20  1  0  0  0  0
 13 14  1  0  0  0  0
M  END
