41

C          1.05770        0.05690       -0.04670
C          2.55720        0.02170       -0.06070
C          3.30170        1.21770       -0.06150
C          4.69220        1.12460       -0.07760
C          5.65330        2.10380       -0.07160
C          5.53540        3.49280       -0.05670
C          6.71820        4.25850       -0.08070
C          6.65980        5.75670       -0.07230
C          7.97360        3.61100       -0.12560
C          8.06230        2.20880       -0.13850
C          6.87520        1.46060       -0.09540
N          6.71150        0.10420       -0.11500
C          7.75240       -0.90640       -0.15560
C          7.55799       -2.16913        0.43834
C          8.56780       -3.13480        0.41826
C          9.79724       -2.85984       -0.19395
C         10.89465       -3.88253       -0.20947
C         10.00001       -1.61103       -0.79357
C          8.98895       -0.64564       -0.77711
C          5.35800       -0.08600       -0.10420
C          4.63290       -1.28730       -0.08320
C          3.22780       -1.22340       -0.06580
H          0.67470        1.09980       -0.04270
H          0.67960       -0.46010        0.86010
H          0.66480       -0.45720       -0.94910
H          2.81300        2.18370       -0.04800
H          4.56120        3.96460       -0.03480
H          5.61190        6.12360       -0.04110
H          7.14430        6.15280       -0.98950
H          7.19620        6.14550        0.81880
H          8.88430        4.19660       -0.15740
H          9.03750        1.75380       -0.19730
H          6.61727       -2.42724        0.90158
H          8.38716       -4.09688        0.88177
H         10.58836       -4.81722        0.30705
H         11.78921       -3.47484        0.30728
H         11.16164       -4.13035       -1.25810
H         10.94683       -1.38099       -1.26689
H          9.19582        0.31564       -1.22356
H          5.10990       -2.25420       -0.06670
H          2.65790       -2.14440       -0.05280
41

C          1.05770        0.05690       -0.04670
C          2.55720        0.02170       -0.06070
C          3.30170        1.21770       -0.06150
C          4.69220        1.12460       -0.07760
C          5.65330        2.10380       -0.07160
C          5.53540        3.49280       -0.05670
C          6.71820        4.25850       -0.08070
C          6.65980        5.75670       -0.07230
C          7.97360        3.61100       -0.12560
C          8.06230        2.20880       -0.13850
C          6.87520        1.46060       -0.09540
N          6.71150        0.10420       -0.11500
C          7.75240       -0.90640       -0.15560
C          9.01638       -0.66622        0.41861
C         10.02585       -1.63073        0.36086
C          9.79631       -2.85754       -0.27488
C         10.87627       -3.89554       -0.35661
C          8.54212       -3.11064       -0.84331
C          7.53045       -2.14764       -0.78280
C          5.35800       -0.08600       -0.10420
C          4.63290       -1.28730       -0.08320
C          3.22780       -1.22340       -0.06580
H          0.67470        1.09980       -0.04270
H          0.67960       -0.46010        0.86010
H          0.66480       -0.45720       -0.94910
H          2.81300        2.18370       -0.04800
H          4.56120        3.96460       -0.03480
H          5.61190        6.12360       -0.04110
H          7.14430        6.15280       -0.98950
H          7.19620        6.14550        0.81880
H          8.88430        4.19660       -0.15740
H          9.03750        1.75380       -0.19730
H          9.22594        0.25826        0.93589
H         10.98635       -1.41702        0.81346
H         11.81184       -3.55006        0.13288
H         11.09999       -4.11526       -1.42205
H         10.53962       -4.82735        0.14412
H          8.35014       -4.05248       -1.34282
H          6.58746       -2.36946       -1.26005
H          5.10990       -2.25420       -0.06670
H          2.65790       -2.14440       -0.05280
41

C          1.05770        0.05690       -0.04670
C          2.55720        0.02170       -0.06070
C          3.30170        1.21770       -0.06150
C          4.69220        1.12460       -0.07760
C          5.65330        2.10380       -0.07160
C          5.53540        3.49280       -0.05670
C          6.71820        4.25850       -0.08070
C          6.65980        5.75670       -0.07230
C          7.97360        3.61100       -0.12560
C          8.06230        2.20880       -0.13850
C          6.87520        1.46060       -0.09540
N          6.71150        0.10420       -0.11500
C          7.75240       -0.90640       -0.15560
C          9.11327       -0.54239       -0.17978
C         10.11522       -1.51451       -0.24060
C          9.78016       -2.87392       -0.28142
C         10.84574       -3.92679       -0.36168
C          8.43145       -3.24842       -0.25107
C          7.42850       -2.27660       -0.18655
C          5.35800       -0.08600       -0.10420
C          4.63290       -1.28730       -0.08320
C          3.22780       -1.22340       -0.06580
H          0.67470        1.09980       -0.04270
H          0.67960       -0.46010        0.86010
H          0.66480       -0.45720       -0.94910
H          2.81300        2.18370       -0.04800
H          4.56120        3.96460       -0.03480
H          5.61190        6.12360       -0.04110
H          7.14430        6.15280       -0.98950
H          7.19620        6.14550        0.81880
H          8.88430        4.19660       -0.15740
H          9.03750        1.75380       -0.19730
H          9.41308        0.49378       -0.12850
H         11.15243       -1.20300       -0.25584
H         11.86178       -3.47792       -0.38261
H         10.70846       -4.52391       -1.28801
H         10.77546       -4.59948        0.51858
H          8.15555       -4.29533       -0.28688
H          6.39991       -2.60538       -0.19596
H          5.10990       -2.25420       -0.06670
H          2.65790       -2.14440       -0.05280
