
 OpenBabel02012213433D

 41 44  0  0  0  0  0  0  0  0999 V2000
    1.0577    0.0569   -0.0467 C   0  0  0  0  0  0  0  0  0  0  0  0
    2.5572    0.0217   -0.0607 C   0  0  0  0  0  0  0  0  0  0  0  0
    3.3017    1.2177   -0.0615 C   0  0  0  0  0  0  0  0  0  0  0  0
    4.6922    1.1246   -0.0776 C   0  0  0  0  0  0  0  0  0  0  0  0
    5.6533    2.1038   -0.0716 C   0  0  0  0  0  0  0  0  0  0  0  0
    5.5354    3.4928   -0.0567 C   0  0  0  0  0  0  0  0  0  0  0  0
    6.7182    4.2585   -0.0807 C   0  0  0  0  0  0  0  0  0  0  0  0
    6.6598    5.7567   -0.0723 C   0  0  0  0  0  0  0  0  0  0  0  0
    7.9736    3.6110   -0.1256 C   0  0  0  0  0  0  0  0  0  0  0  0
    8.0623    2.2088   -0.1385 C   0  0  0  0  0  0  0  0  0  0  0  0
    6.8752    1.4606   -0.0954 C   0  0  0  0  0  0  0  0  0  0  0  0
    6.7115    0.1042   -0.1150 N   0  0  0  0  0  0  0  0  0  0  0  0
    7.7524   -0.9064   -0.1556 C   0  0  0  0  0  0  0  0  0  0  0  0
    8.9432   -0.7481    0.5806 C   0  0  0  0  0  0  0  0  0  0  0  0
    9.9547   -1.7106    0.5249 C   0  0  0  0  0  0  0  0  0  0  0  0
    9.8007   -2.8532   -0.2705 C   0  0  0  0  0  0  0  0  0  0  0  0
   10.8851   -3.8867   -0.3505 C   0  0  0  0  0  0  0  0  0  0  0  0
    8.6190   -3.0251   -1.0014 C   0  0  0  0  0  0  0  0  0  0  0  0
    7.6050   -2.0644   -0.9434 C   0  0  0  0  0  0  0  0  0  0  0  0
    5.3580   -0.0860   -0.1042 C   0  0  0  0  0  0  0  0  0  0  0  0
    4.6329   -1.2873   -0.0832 C   0  0  0  0  0  0  0  0  0  0  0  0
    3.2278   -1.2234   -0.0658 C   0  0  0  0  0  0  0  0  0  0  0  0
    0.6747    1.0998   -0.0427 H   0  0  0  0  0  0  0  0  0  0  0  0
    0.6796   -0.4601    0.8601 H   0  0  0  0  0  0  0  0  0  0  0  0
    0.6648   -0.4572   -0.9491 H   0  0  0  0  0  0  0  0  0  0  0  0
    2.8130    2.1837   -0.0480 H   0  0  0  0  0  0  0  0  0  0  0  0
    4.5612    3.9646   -0.0348 H   0  0  0  0  0  0  0  0  0  0  0  0
    5.6119    6.1236   -0.0411 H   0  0  0  0  0  0  0  0  0  0  0  0
    7.1443    6.1528   -0.9895 H   0  0  0  0  0  0  0  0  0  0  0  0
    7.1962    6.1455    0.8188 H   0  0  0  0  0  0  0  0  0  0  0  0
    8.8843    4.1966   -0.1574 H   0  0  0  0  0  0  0  0  0  0  0  0
    9.0375    1.7538   -0.1973 H   0  0  0  0  0  0  0  0  0  0  0  0
    9.0913    0.1081    1.2218 H   0  0  0  0  0  0  0  0  0  0  0  0
   10.8577   -1.5612    1.1040 H   0  0  0  0  0  0  0  0  0  0  0  0
   11.7589   -3.6104    0.2775 H   0  0  0  0  0  0  0  0  0  0  0  0
   11.2278   -3.9844   -1.4024 H   0  0  0  0  0  0  0  0  0  0  0  0
   10.4961   -4.8663   -0.0021 H   0  0  0  0  0  0  0  0  0  0  0  0
    8.4864   -3.9008   -1.6251 H   0  0  0  0  0  0  0  0  0  0  0  0
    6.7222   -2.2192   -1.5458 H   0  0  0  0  0  0  0  0  0  0  0  0
    5.1099   -2.2542   -0.0667 H   0  0  0  0  0  0  0  0  0  0  0  0
    2.6579   -2.1444   -0.0528 H   0  0  0  0  0  0  0  0  0  0  0  0
  1  2  1  0  0  0  0
  1 23  1  0  0  0  0
  1 24  1  0  0  0  0
  1 25  1  0  0  0  0
  2  3  1  0  0  0  0
  2 22  2  0  0  0  0
  3  4  2  0  0  0  0
  3 26  1  0  0  0  0
  4  5  1  0  0  0  0
  4 20  1  0  0  0  0
  5  6  2  0  0  0  0
  5 11  1  0  0  0  0
  6  7  1  0  0  0  0
  6 27  1  0  0  0  0
  7  8  1  0  0  0  0
  7  9  2  0  0  0  0
  8 28  1  0  0  0  0
  8 29  1  0  0  0  0
  8 30  1  0  0  0  0
  9 10  1  0  0  0  0
  9 31  1  0  0  0  0
 10 11  2  0  0  0  0
 10 32  1  0  0  0  0
 11 12  1  0  0  0  0
 12 13  1  0  0  0  0
 12 20  1  0  0  0  0
 13 14  1  0  0  0  0
 13 19  2  0  0  0  0
 14 15  2  0  0  0  0
 14 33  1  0  0  0  0
 15 16  1  0  0  0  0
 15 34  1  0  0  0  0
 16 17  1  0  0  0  0
 16 18  2  0  0  0  0
 17 35  1  0  0  0  0
 17 36  1  0  0  0  0
 17 37  1  0  0  0  0
 18 19  1  0  0  0  0
 18 38  1  0  0  0  0
 19 39  1  0  0  0  0
 20 21  2  0  0  0  0
 21 22  1  0  0  0  0
 21 40  1  0  0  0  0
 22 41  1  0  0  0  0
M  END
