
 OpenBabel02012214103D

 47 49  0  0  0  0  0  0  0  0999 V2000
    0.5808    1.3326   -4.5400 C   0  0  0  0  0  0  0  0  0  0  0  0
    2.0920    1.2458   -4.6597 C   0  0  0  0  0  0  0  0  0  0  0  0
    2.7704    1.5930   -3.3388 C   0  0  0  0  0  0  0  0  0  0  0  0
    4.2898    1.4986   -3.4663 C   0  0  0  0  0  0  0  0  0  0  0  0
    4.9584    1.8484   -2.1403 C   0  0  0  0  0  0  0  0  0  0  0  0
    6.4951    1.8603   -2.2111 C   0  0  0  0  0  0  0  0  0  0  0  0
    7.0402    2.7857   -3.2398 N   0  0  0  0  0  0  0  0  0  0  0  0
    6.7742    4.1789   -3.0256 C   0  0  0  0  0  0  0  0  0  0  0  0
    6.2978    4.6773   -1.7904 C   0  0  0  0  0  0  0  0  0  0  0  0
    5.9071    6.0095   -1.6032 C   0  0  0  0  0  0  0  0  0  0  0  0
    6.0392    6.9265   -2.6345 C   0  0  0  0  0  0  0  0  0  0  0  0
    5.6287    8.3567   -2.4676 C   0  0  0  0  0  0  0  0  0  0  0  0
    6.5894    6.4870   -3.8379 C   0  0  0  0  0  0  0  0  0  0  0  0
    6.9536    5.1378   -4.0379 C   0  0  0  0  0  0  0  0  0  0  0  0
    7.6178    4.7763   -5.6389 S   0  0  0  0  0  0  0  0  0  0  0  0
    7.9257    3.0320   -5.5441 C   0  0  0  0  0  0  0  0  0  0  0  0
    8.5081    2.4821   -6.7099 C   0  0  0  0  0  0  0  0  0  0  0  0
    8.8009    1.1280   -6.8113 C   0  0  0  0  0  0  0  0  0  0  0  0
    9.4279    0.5558   -8.0495 C   0  0  0  0  0  0  0  0  0  0  0  0
    8.5022    0.3156   -5.7290 C   0  0  0  0  0  0  0  0  0  0  0  0
    7.9286    0.8589   -4.5643 C   0  0  0  0  0  0  0  0  0  0  0  0
    7.6116    2.2295   -4.4246 C   0  0  0  0  0  0  0  0  0  0  0  0
    0.1110    1.0800   -5.4950 H   0  0  0  0  0  0  0  0  0  0  0  0
    0.2678    2.3441   -4.2617 H   0  0  0  0  0  0  0  0  0  0  0  0
    0.2090    0.6368   -3.7810 H   0  0  0  0  0  0  0  0  0  0  0  0
    2.4332    1.9313   -5.4444 H   0  0  0  0  0  0  0  0  0  0  0  0
    2.3751    0.2326   -4.9669 H   0  0  0  0  0  0  0  0  0  0  0  0
    2.4216    0.9171   -2.5488 H   0  0  0  0  0  0  0  0  0  0  0  0
    2.4893    2.6109   -3.0390 H   0  0  0  0  0  0  0  0  0  0  0  0
    4.6182    2.1879   -4.2521 H   0  0  0  0  0  0  0  0  0  0  0  0
    4.5823    0.4876   -3.7707 H   0  0  0  0  0  0  0  0  0  0  0  0
    4.6566    1.1196   -1.3771 H   0  0  0  0  0  0  0  0  0  0  0  0
    4.5636    2.8078   -1.7947 H   0  0  0  0  0  0  0  0  0  0  0  0
    6.8050    0.8235   -2.3335 H   0  0  0  0  0  0  0  0  0  0  0  0
    6.9173    2.1123   -1.2294 H   0  0  0  0  0  0  0  0  0  0  0  0
    6.1855    4.0358   -0.9226 H   0  0  0  0  0  0  0  0  0  0  0  0
    5.4925    6.3091   -0.6435 H   0  0  0  0  0  0  0  0  0  0  0  0
    5.1526    8.5264   -1.4963 H   0  0  0  0  0  0  0  0  0  0  0  0
    4.9090    8.6365   -3.2438 H   0  0  0  0  0  0  0  0  0  0  0  0
    6.5049    9.0088   -2.5355 H   0  0  0  0  0  0  0  0  0  0  0  0
    6.7274    7.2050   -4.6451 H   0  0  0  0  0  0  0  0  0  0  0  0
    8.7359    3.1377   -7.5519 H   0  0  0  0  0  0  0  0  0  0  0  0
    9.6045    1.3289   -8.8045 H   0  0  0  0  0  0  0  0  0  0  0  0
    8.7722   -0.2008   -8.4923 H   0  0  0  0  0  0  0  0  0  0  0  0
   10.3926    0.0994   -7.8072 H   0  0  0  0  0  0  0  0  0  0  0  0
    8.7164   -0.7496   -5.7666 H   0  0  0  0  0  0  0  0  0  0  0  0
    7.7647    0.1379   -3.7737 H   0  0  0  0  0  0  0  0  0  0  0  0
  1  2  1  0  0  0  0
  1 23  1  0  0  0  0
  1 24  1  0  0  0  0
  1 25  1  0  0  0  0
  2  3  1  0  0  0  0
  2 26  1  0  0  0  0
  2 27  1  0  0  0  0
  3  4  1  0  0  0  0
  3 28  1  0  0  0  0
  3 29  1  0  0  0  0
  4  5  1  0  0  0  0
  4 30  1  0  0  0  0
  4 31  1  0  0  0  0
  5  6  1  0  0  0  0
  5 32  1  0  0  0  0
  5 33  1  0  0  0  0
  6  7  1  0  0  0  0
  6 34  1  0  0  0  0
  6 35  1  0  0  0  0
  7  8  1  0  0  0  0
  7 22  1  0  0  0  0
  8  9  1  0  0  0  0
  8 14  2  0  0  0  0
  9 10  2  0  0  0  0
  9 36  1  0  0  0  0
 10 11  1  0  0  0  0
 10 37  1  0  0  0  0
 11 12  1  0  0  0  0
 11 13  2  0  0  0  0
 12 38  1  0  0  0  0
 12 39  1  0  0  0  0
 12 40  1  0  0  0  0
 13 14  1  0  0  0  0
 13 41  1  0  0  0  0
 14 15  1  0  0  0  0
 15 16  1  0  0  0  0
 16 17  1  0  0  0  0
 16 22  2  0  0  0  0
 17 18  2  0  0  0  0
 17 42  1  0  0  0  0
 18 19  1  0  0  0  0
 18 20  1  0  0  0  0
 19 43  1  0  0  0  0
 19 44  1  0  0  0  0
 19 45  1  0  0  0  0
 20 21  2  0  0  0  0
 20 46  1  0  0  0  0
 21 22  1  0  0  0  0
 21 47  1  0  0  0  0
M  END
