
  xtb     02012214103D
 xtb: 6.4.1 (23d549d)
 47 49  0     0  0            999 V2000
    6.8471   -3.0503   -2.0446 c   0  0  0  0  0  0  0  0  0  0  0  0
    7.5057   -1.8235   -1.4243 c   0  0  0  0  0  0  0  0  0  0  0  0
    6.5202   -0.9258   -0.6731 c   0  0  0  0  0  0  0  0  0  0  0  0
    5.4208   -0.3059   -1.5397 c   0  0  0  0  0  0  0  0  0  0  0  0
    5.9200    0.5816   -2.6799 c   0  0  0  0  0  0  0  0  0  0  0  0
    6.6856    1.8111   -2.1804 c   0  0  0  0  0  0  0  0  0  0  0  0
    6.9235    2.7356   -3.2682 n   0  0  0  0  0  0  0  0  0  0  0  0
    6.6681    4.0963   -3.1051 c   0  0  0  0  0  0  0  0  0  0  0  0
    6.7438    4.7193   -1.8611 c   0  0  0  0  0  0  0  0  0  0  0  0
    6.4632    6.0669   -1.7171 c   0  0  0  0  0  0  0  0  0  0  0  0
    6.1283    6.8530   -2.8087 c   0  0  0  0  0  0  0  0  0  0  0  0
    5.8394    8.3163   -2.6676 c   0  0  0  0  0  0  0  0  0  0  0  0
    6.0859    6.2475   -4.0587 c   0  0  0  0  0  0  0  0  0  0  0  0
    6.3401    4.8973   -4.2023 c   0  0  0  0  0  0  0  0  0  0  0  0
    6.2033    4.1753   -5.8162 s   0  0  0  0  0  0  0  0  0  0  0  0
    7.4314    2.9090   -5.6344 c   0  0  0  0  0  0  0  0  0  0  0  0
    8.1421    2.5126   -6.7523 c   0  0  0  0  0  0  0  0  0  0  0  0
    9.0758    1.4884   -6.6770 c   0  0  0  0  0  0  0  0  0  0  0  0
    9.8113    1.0283   -7.8983 c   0  0  0  0  0  0  0  0  0  0  0  0
    9.2902    0.8936   -5.4415 c   0  0  0  0  0  0  0  0  0  0  0  0
    8.5980    1.3042   -4.3173 c   0  0  0  0  0  0  0  0  0  0  0  0
    7.6397    2.3140   -4.3885 c   0  0  0  0  0  0  0  0  0  0  0  0
    7.6003   -3.7020   -2.4829 h   0  0  0  0  0  0  0  0  0  0  0  0
    6.1497   -2.7663   -2.8285 h   0  0  0  0  0  0  0  0  0  0  0  0
    6.3048   -3.6139   -1.2877 h   0  0  0  0  0  0  0  0  0  0  0  0
    8.0114   -1.2532   -2.2053 h   0  0  0  0  0  0  0  0  0  0  0  0
    8.2709   -2.1530   -0.7163 h   0  0  0  0  0  0  0  0  0  0  0  0
    7.0784   -0.1305   -0.1738 h   0  0  0  0  0  0  0  0  0  0  0  0
    6.0379   -1.5191    0.1083 h   0  0  0  0  0  0  0  0  0  0  0  0
    4.7700    0.2870   -0.8910 h   0  0  0  0  0  0  0  0  0  0  0  0
    4.8101   -1.1032   -1.9668 h   0  0  0  0  0  0  0  0  0  0  0  0
    5.0568    0.9346   -3.2499 h   0  0  0  0  0  0  0  0  0  0  0  0
    6.5415    0.0021   -3.3621 h   0  0  0  0  0  0  0  0  0  0  0  0
    7.6207    1.5165   -1.6887 h   0  0  0  0  0  0  0  0  0  0  0  0
    6.0610    2.3207   -1.4448 h   0  0  0  0  0  0  0  0  0  0  0  0
    7.0304    4.1498   -0.9905 h   0  0  0  0  0  0  0  0  0  0  0  0
    6.5178    6.5109   -0.7336 h   0  0  0  0  0  0  0  0  0  0  0  0
    5.7219    8.5893   -1.6219 h   0  0  0  0  0  0  0  0  0  0  0  0
    4.9306    8.5811   -3.2050 h   0  0  0  0  0  0  0  0  0  0  0  0
    6.6570    8.9032   -3.0866 h   0  0  0  0  0  0  0  0  0  0  0  0
    5.8302    6.8243   -4.9350 h   0  0  0  0  0  0  0  0  0  0  0  0
    7.9415    3.0015   -7.6939 h   0  0  0  0  0  0  0  0  0  0  0  0
    9.8789    1.8274   -8.6326 h   0  0  0  0  0  0  0  0  0  0  0  0
    9.2864    0.1897   -8.3580 h   0  0  0  0  0  0  0  0  0  0  0  0
   10.8153    0.6966   -7.6423 h   0  0  0  0  0  0  0  0  0  0  0  0
   10.0171    0.0994   -5.3503 h   0  0  0  0  0  0  0  0  0  0  0  0
    8.8151    0.8353   -3.3707 h   0  0  0  0  0  0  0  0  0  0  0  0
  1  2  1  0  0  0  0
  2  3  1  0  0  0  0
  3  4  1  0  0  0  0
  4  5  1  0  0  0  0
  5  6  1  0  0  0  0
  6  7  1  0  0  0  0
  7  8  1  0  0  0  0
  8  9  4  0  0  0  0
  9 10  4  0  0  0  0
 10 11  4  0  0  0  0
 11 12  1  0  0  0  0
 11 13  4  0  0  0  0
  8 14  4  0  0  0  0
 13 14  4  0  0  0  0
 14 15  1  0  0  0  0
 15 16  1  0  0  0  0
 16 17  4  0  0  0  0
 17 18  4  0  0  0  0
 18 19  1  0  0  0  0
 18 20  4  0  0  0  0
 20 21  4  0  0  0  0
  7 22  1  0  0  0  0
 16 22  4  0  0  0  0
 21 22  4  0  0  0  0
  1 23  1  0  0  0  0
  1 24  1  0  0  0  0
  1 25  1  0  0  0  0
  2 26  1  0  0  0  0
  2 27  1  0  0  0  0
  3 28  1  0  0  0  0
  3 29  1  0  0  0  0
  4 30  1  0  0  0  0
  4 31  1  0  0  0  0
  5 32  1  0  0  0  0
  5 33  1  0  0  0  0
  6 34  1  0  0  0  0
  6 35  1  0  0  0  0
  9 36  1  0  0  0  0
 10 37  1  0  0  0  0
 12 38  1  0  0  0  0
 12 39  1  0  0  0  0
 12 40  1  0  0  0  0
 13 41  1  0  0  0  0
 17 42  1  0  0  0  0
 19 43  1  0  0  0  0
 19 44  1  0  0  0  0
 19 45  1  0  0  0  0
 20 46  1  0  0  0  0
 21 47  1  0  0  0  0
M  END
