
  xtb     02032211363D
 xtb: 6.4.1 (23d549d)
 42 42  0     0  0            999 V2000
   -2.9233    4.1973   -4.5364 C   0  0  0  0  0  0  0  0  0  0  0  0
   -2.4700    4.3879   -3.3037 C   0  0  0  0  0  0  0  0  0  0  0  0
   -1.7713    3.4147   -2.4708 C   0  0  0  0  0  0  0  0  0  0  0  0
   -1.2752    3.8233   -1.2330 C   0  0  0  0  0  0  0  0  0  0  0  0
   -0.5970    2.9439   -0.3967 C   0  0  0  0  0  0  0  0  0  0  0  0
   -0.1069    3.4315    0.8882 C   0  0  0  0  0  0  0  0  0  0  0  0
    0.4288    2.7107    1.8659 C   0  0  0  0  0  0  0  0  0  0  0  0
   -0.4087    1.6240   -0.8103 C   0  0  0  0  0  0  0  0  0  0  0  0
   -0.9006    1.1976   -2.0355 C   0  0  0  0  0  0  0  0  0  0  0  0
   -0.7642   -0.0616   -2.5456 O   0  0  0  0  0  0  0  0  0  0  0  0
   -0.1689   -1.0714   -1.7612 C   0  0  0  0  0  0  0  0  0  0  0  0
   -1.1150   -1.6053   -0.6812 C   0  0  0  0  0  0  0  0  0  0  0  0
   -0.4867   -2.7128    0.1634 C   0  0  0  0  0  0  0  0  0  0  0  0
    0.5885   -2.2027    1.1223 C   0  0  0  0  0  0  0  0  0  0  0  0
    1.1272   -3.3256    2.0066 C   0  0  0  0  0  0  0  0  0  0  0  0
    2.2142   -2.8183    2.9625 C   0  0  0  0  0  0  0  0  0  0  0  0
    2.7352   -3.9558    3.8201 C   0  0  0  0  0  0  0  0  0  0  0  0
    2.4831   -4.0949    4.9799 O   0  0  0  0  0  0  0  0  0  0  0  0
    3.5088   -4.8455    3.1699 O   0  0  0  0  0  0  0  0  0  0  0  0
   -1.5791    2.0942   -2.8584 C   0  0  0  0  0  0  0  0  0  0  0  0
   -3.4266    4.9821   -5.0749 H   0  0  0  0  0  0  0  0  0  0  0  0
   -2.8119    3.2637   -5.0599 H   0  0  0  0  0  0  0  0  0  0  0  0
   -2.6083    5.3568   -2.8390 H   0  0  0  0  0  0  0  0  0  0  0  0
   -1.4225    4.8462   -0.9160 H   0  0  0  0  0  0  0  0  0  0  0  0
   -0.2190    4.4993    1.0318 H   0  0  0  0  0  0  0  0  0  0  0  0
    0.5608    1.6438    1.8040 H   0  0  0  0  0  0  0  0  0  0  0  0
    0.7563    3.1684    2.7835 H   0  0  0  0  0  0  0  0  0  0  0  0
    0.1313    0.9507   -0.1663 H   0  0  0  0  0  0  0  0  0  0  0  0
    0.7724   -0.7139   -1.3274 H   0  0  0  0  0  0  0  0  0  0  0  0
    0.0647   -1.8699   -2.4719 H   0  0  0  0  0  0  0  0  0  0  0  0
   -2.0057   -1.9905   -1.1814 H   0  0  0  0  0  0  0  0  0  0  0  0
   -1.4329   -0.7845   -0.0350 H   0  0  0  0  0  0  0  0  0  0  0  0
   -0.0583   -3.4713   -0.4961 H   0  0  0  0  0  0  0  0  0  0  0  0
   -1.2744   -3.1912    0.7491 H   0  0  0  0  0  0  0  0  0  0  0  0
    0.1641   -1.4212    1.7562 H   0  0  0  0  0  0  0  0  0  0  0  0
    1.4158   -1.7669    0.5580 H   0  0  0  0  0  0  0  0  0  0  0  0
    1.5239   -4.1217    1.3698 H   0  0  0  0  0  0  0  0  0  0  0  0
    0.3106   -3.7500    2.5938 H   0  0  0  0  0  0  0  0  0  0  0  0
    1.7971   -2.0575    3.6226 H   0  0  0  0  0  0  0  0  0  0  0  0
    3.0382   -2.3768    2.3947 H   0  0  0  0  0  0  0  0  0  0  0  0
    3.6357   -4.6139    2.2405 H   0  0  0  0  0  0  0  0  0  0  0  0
   -1.9466    1.7260   -3.8018 H   0  0  0  0  0  0  0  0  0  0  0  0
  1  2  2  0  0  0  0
  2  3  1  0  0  0  0
  3  4  4  0  0  0  0
  4  5  4  0  0  0  0
  5  6  1  0  0  0  0
  6  7  2  0  0  0  0
  5  8  4  0  0  0  0
  8  9  4  0  0  0  0
  9 10  1  0  0  0  0
 10 11  1  0  0  0  0
 11 12  1  0  0  0  0
 12 13  1  0  0  0  0
 13 14  1  0  0  0  0
 14 15  1  0  0  0  0
 15 16  1  0  0  0  0
 16 17  1  0  0  0  0
 17 18  2  0  0  0  0
 17 19  1  0  0  0  0
  3 20  4  0  0  0  0
  9 20  4  0  0  0  0
  1 21  1  0  0  0  0
  1 22  1  0  0  0  0
  2 23  1  0  0  0  0
  4 24  1  0  0  0  0
  6 25  1  0  0  0  0
  7 26  1  0  0  0  0
  7 27  1  0  0  0  0
  8 28  1  0  0  0  0
 11 29  1  0  0  0  0
 11 30  1  0  0  0  0
 12 31  1  0  0  0  0
 12 32  1  0  0  0  0
 13 33  1  0  0  0  0
 13 34  1  0  0  0  0
 14 35  1  0  0  0  0
 14 36  1  0  0  0  0
 15 37  1  0  0  0  0
 15 38  1  0  0  0  0
 16 39  1  0  0  0  0
 16 40  1  0  0  0  0
 19 41  1  0  0  0  0
 20 42  1  0  0  0  0
M  END
