
  xtb     02032211353D
 xtb: 6.4.1 (23d549d)
 24 24  0     0  0            999 V2000
    4.1665   -0.0160    0.4371 C   0  0  0  0  0  0  0  0  0  0  0  0
    3.0176    0.5111    0.0239 C   0  0  0  0  0  0  0  0  0  0  0  0
    1.7520   -0.1741   -0.0141 C   0  0  0  0  0  0  0  0  0  0  0  0
    1.6233   -1.5214    0.0636 N   0  0  0  0  0  0  0  0  0  0  0  0
    0.3619   -1.9274   -0.0712 N   0  0  0  0  0  0  0  0  0  0  0  0
   -0.3543   -0.8230   -0.2360 C   0  0  0  0  0  0  0  0  0  0  0  0
   -1.7286   -0.9422   -0.4069 N   0  0  0  0  0  0  0  0  0  0  0  0
   -2.6868   -0.0883    0.0699 C   0  0  0  0  0  0  0  0  0  0  0  0
   -4.0880   -0.6169   -0.1614 C   0  0  0  0  0  0  0  0  0  0  0  0
   -2.4479    0.9702    0.5980 O   0  0  0  0  0  0  0  0  0  0  0  0
    0.4638    0.3312   -0.2178 C   0  0  0  0  0  0  0  0  0  0  0  0
    0.0607    1.7102   -0.4066 C   0  0  0  0  0  0  0  0  0  0  0  0
    0.6082    2.7438    0.2183 C   0  0  0  0  0  0  0  0  0  0  0  0
    5.0791    0.5530    0.4234 H   0  0  0  0  0  0  0  0  0  0  0  0
    4.2421   -1.0206    0.8194 H   0  0  0  0  0  0  0  0  0  0  0  0
    2.9817    1.5337   -0.3251 H   0  0  0  0  0  0  0  0  0  0  0  0
    2.3577   -2.2020    0.1645 H   0  0  0  0  0  0  0  0  0  0  0  0
   -2.0131   -1.8812   -0.6493 H   0  0  0  0  0  0  0  0  0  0  0  0
   -4.2353   -0.8498   -1.2136 H   0  0  0  0  0  0  0  0  0  0  0  0
   -4.8080    0.1349    0.1478 H   0  0  0  0  0  0  0  0  0  0  0  0
   -4.2449   -1.5210    0.4236 H   0  0  0  0  0  0  0  0  0  0  0  0
   -0.7512    1.8647   -1.1036 H   0  0  0  0  0  0  0  0  0  0  0  0
    1.3754    2.6206    0.9644 H   0  0  0  0  0  0  0  0  0  0  0  0
    0.2765    3.7504    0.0321 H   0  0  0  0  0  0  0  0  0  0  0  0
  1  2  2  0  0  0  0
  2  3  1  0  0  0  0
  3  4  4  0  0  0  0
  4  5  1  0  0  0  0
  5  6  4  0  0  0  0
  6  7  1  0  0  0  0
  7  8  1  0  0  0  0
  8  9  1  0  0  0  0
  8 10  2  0  0  0  0
  3 11  4  0  0  0  0
  6 11  4  0  0  0  0
 11 12  1  0  0  0  0
 12 13  2  0  0  0  0
  1 14  1  0  0  0  0
  1 15  1  0  0  0  0
  2 16  1  0  0  0  0
  4 17  1  0  0  0  0
  7 18  1  0  0  0  0
  9 19  1  0  0  0  0
  9 20  1  0  0  0  0
  9 21  1  0  0  0  0
 12 22  1  0  0  0  0
 13 23  1  0  0  0  0
 13 24  1  0  0  0  0
M  END
