
  xtb     02032211353D
 xtb: 6.4.1 (23d549d)
 41 41  0     0  0            999 V2000
   -1.7803    0.4274    3.3501 C   0  0  0  0  0  0  0  0  0  0  0  0
   -1.9537   -0.4783    2.3902 C   0  0  0  0  0  0  0  0  0  0  0  0
   -1.7944   -0.2361    0.9819 C   0  0  0  0  0  0  0  0  0  0  0  0
   -1.4796    0.9198    0.3144 C   0  0  0  0  0  0  0  0  0  0  0  0
   -1.3798    0.7707   -1.0811 C   0  0  0  0  0  0  0  0  0  0  0  0
   -0.9803    1.8912   -1.9890 C   0  0  0  0  0  0  0  0  0  0  0  0
    0.5033    1.8373   -2.3884 C   0  0  0  0  0  0  0  0  0  0  0  0
    1.4576    1.9432   -1.1940 C   0  0  0  0  0  0  0  0  0  0  0  0
    1.8193    0.5864   -0.5901 C   0  0  0  0  0  0  0  0  0  0  0  0
    2.5542    0.7289    0.7402 C   0  0  0  0  0  0  0  0  0  0  0  0
    2.8644   -0.6321    1.3588 C   0  0  0  0  0  0  0  0  0  0  0  0
    3.4883   -0.5388    2.7514 C   0  0  0  0  0  0  0  0  0  0  0  0
    4.8913    0.0572    2.7433 C   0  0  0  0  0  0  0  0  0  0  0  0
   -1.6366   -0.5209   -1.4951 C   0  0  0  0  0  0  0  0  0  0  0  0
   -1.6297   -1.0340   -2.8361 C   0  0  0  0  0  0  0  0  0  0  0  0
   -1.8214   -2.3089   -3.1663 C   0  0  0  0  0  0  0  0  0  0  0  0
   -1.9917   -1.5507   -0.1375 S   0  0  0  0  0  0  0  0  0  0  0  0
   -1.9131    0.1752    4.3872 H   0  0  0  0  0  0  0  0  0  0  0  0
   -1.5023    1.4445    3.1353 H   0  0  0  0  0  0  0  0  0  0  0  0
   -2.2293   -1.4921    2.6508 H   0  0  0  0  0  0  0  0  0  0  0  0
   -1.3179    1.8583    0.8136 H   0  0  0  0  0  0  0  0  0  0  0  0
   -1.1731    2.8390   -1.4819 H   0  0  0  0  0  0  0  0  0  0  0  0
   -1.5890    1.8694   -2.8963 H   0  0  0  0  0  0  0  0  0  0  0  0
    0.6887    2.6671   -3.0745 H   0  0  0  0  0  0  0  0  0  0  0  0
    0.7028    0.9092   -2.9276 H   0  0  0  0  0  0  0  0  0  0  0  0
    1.0019    2.5706   -0.4251 H   0  0  0  0  0  0  0  0  0  0  0  0
    2.3789    2.4384   -1.5102 H   0  0  0  0  0  0  0  0  0  0  0  0
    2.4449    0.0337   -1.2954 H   0  0  0  0  0  0  0  0  0  0  0  0
    0.9147    0.0012   -0.4284 H   0  0  0  0  0  0  0  0  0  0  0  0
    1.9300    1.2990    1.4331 H   0  0  0  0  0  0  0  0  0  0  0  0
    3.4777    1.2887    0.5829 H   0  0  0  0  0  0  0  0  0  0  0  0
    3.5363   -1.1858    0.6987 H   0  0  0  0  0  0  0  0  0  0  0  0
    1.9324   -1.1990    1.4319 H   0  0  0  0  0  0  0  0  0  0  0  0
    3.5355   -1.5433    3.1788 H   0  0  0  0  0  0  0  0  0  0  0  0
    2.8414    0.0624    3.3945 H   0  0  0  0  0  0  0  0  0  0  0  0
    5.5406   -0.5092    2.0789 H   0  0  0  0  0  0  0  0  0  0  0  0
    5.3185    0.0313    3.7434 H   0  0  0  0  0  0  0  0  0  0  0  0
    4.8748    1.0913    2.4097 H   0  0  0  0  0  0  0  0  0  0  0  0
   -1.4519   -0.2978   -3.6090 H   0  0  0  0  0  0  0  0  0  0  0  0
   -1.9947   -3.0639   -2.4172 H   0  0  0  0  0  0  0  0  0  0  0  0
   -1.8095   -2.6357   -4.1909 H   0  0  0  0  0  0  0  0  0  0  0  0
  1  2  2  0  0  0  0
  2  3  1  0  0  0  0
  3  4  2  0  0  0  0
  4  5  4  0  0  0  0
  5  6  1  0  0  0  0
  6  7  1  0  0  0  0
  7  8  1  0  0  0  0
  8  9  1  0  0  0  0
  9 10  1  0  0  0  0
 10 11  1  0  0  0  0
 11 12  1  0  0  0  0
 12 13  1  0  0  0  0
  5 14  4  0  0  0  0
 14 15  1  0  0  0  0
 15 16  2  0  0  0  0
  3 17  1  0  0  0  0
 14 17  1  0  0  0  0
  1 18  1  0  0  0  0
  1 19  1  0  0  0  0
  2 20  1  0  0  0  0
  4 21  1  0  0  0  0
  6 22  1  0  0  0  0
  6 23  1  0  0  0  0
  7 24  1  0  0  0  0
  7 25  1  0  0  0  0
  8 26  1  0  0  0  0
  8 27  1  0  0  0  0
  9 28  1  0  0  0  0
  9 29  1  0  0  0  0
 10 30  1  0  0  0  0
 10 31  1  0  0  0  0
 11 32  1  0  0  0  0
 11 33  1  0  0  0  0
 12 34  1  0  0  0  0
 12 35  1  0  0  0  0
 13 36  1  0  0  0  0
 13 37  1  0  0  0  0
 13 38  1  0  0  0  0
 15 39  1  0  0  0  0
 16 40  1  0  0  0  0
 16 41  1  0  0  0  0
M  END
