
 OpenBabel02012214103D

 47 49  0  0  0  0  0  0  0  0999 V2000
    0.4673    1.2094   -4.5991 C   0  0  0  0  0  0  0  0  0  0  0  0
    1.9884    1.1545   -4.6913 C   0  0  0  0  0  0  0  0  0  0  0  0
    2.6360    1.5180   -3.3505 C   0  0  0  0  0  0  0  0  0  0  0  0
    4.1623    1.4773   -3.4584 C   0  0  0  0  0  0  0  0  0  0  0  0
    4.8234    1.8600   -2.1258 C   0  0  0  0  0  0  0  0  0  0  0  0
    6.3607    1.8105   -2.2351 C   0  0  0  0  0  0  0  0  0  0  0  0
    6.8539    2.7426   -3.2689 N   0  0  0  0  0  0  0  0  0  0  0  0
    6.6422    4.1650   -3.0713 C   0  0  0  0  0  0  0  0  0  0  0  0
    6.3408    4.6838   -1.7811 C   0  0  0  0  0  0  0  0  0  0  0  0
    6.1296    6.0455   -1.5662 C   0  0  0  0  0  0  0  0  0  0  0  0
    6.2132    6.9457   -2.6259 C   0  0  0  0  0  0  0  0  0  0  0  0
    5.9733    8.4124   -2.4150 C   0  0  0  0  0  0  0  0  0  0  0  0
    6.5153    6.4657   -3.9002 C   0  0  0  0  0  0  0  0  0  0  0  0
    6.7281    5.0976   -4.1303 C   0  0  0  0  0  0  0  0  0  0  0  0
    7.0079    4.6522   -5.8306 S   0  0  0  0  0  0  0  0  0  0  0  0
    7.6826    3.0167   -5.6211 C   0  0  0  0  0  0  0  0  0  0  0  0
    8.3390    2.5050   -6.7514 C   0  0  0  0  0  0  0  0  0  0  0  0
    8.8688    1.2150   -6.7566 C   0  0  0  0  0  0  0  0  0  0  0  0
    9.5561    0.6635   -7.9715 C   0  0  0  0  0  0  0  0  0  0  0  0
    8.7484    0.4316   -5.6138 C   0  0  0  0  0  0  0  0  0  0  0  0
    8.1009    0.9265   -4.4815 C   0  0  0  0  0  0  0  0  0  0  0  0
    7.5343    2.2338   -4.4495 C   0  0  0  0  0  0  0  0  0  0  0  0
    0.0259    0.9447   -5.5829 H   0  0  0  0  0  0  0  0  0  0  0  0
    0.1356    2.2333   -4.3238 H   0  0  0  0  0  0  0  0  0  0  0  0
    0.1011    0.4887   -3.8373 H   0  0  0  0  0  0  0  0  0  0  0  0
    2.3251    1.8692   -5.4741 H   0  0  0  0  0  0  0  0  0  0  0  0
    2.2961    0.1283   -4.9893 H   0  0  0  0  0  0  0  0  0  0  0  0
    2.3012    0.8002   -2.5694 H   0  0  0  0  0  0  0  0  0  0  0  0
    2.3182    2.5429   -3.0568 H   0  0  0  0  0  0  0  0  0  0  0  0
    4.4830    2.1920   -4.2478 H   0  0  0  0  0  0  0  0  0  0  0  0
    4.4865    0.4539   -3.7506 H   0  0  0  0  0  0  0  0  0  0  0  0
    4.5018    1.1452   -1.3368 H   0  0  0  0  0  0  0  0  0  0  0  0
    4.4739    2.8678   -1.8265 H   0  0  0  0  0  0  0  0  0  0  0  0
    6.5738    0.7550   -2.4412 H   0  0  0  0  0  0  0  0  0  0  0  0
    6.8445    2.0189   -1.2593 H   0  0  0  0  0  0  0  0  0  0  0  0
    6.2646    4.0547   -0.9096 H   0  0  0  0  0  0  0  0  0  0  0  0
    5.8967    6.3939   -0.5671 H   0  0  0  0  0  0  0  0  0  0  0  0
    5.7328    8.6382   -1.3537 H   0  0  0  0  0  0  0  0  0  0  0  0
    5.1188    8.7428   -3.0431 H   0  0  0  0  0  0  0  0  0  0  0  0
    6.8783    8.9859   -2.7016 H   0  0  0  0  0  0  0  0  0  0  0  0
    6.5683    7.1639   -4.7279 H   0  0  0  0  0  0  0  0  0  0  0  0
    8.4250    3.1179   -7.6414 H   0  0  0  0  0  0  0  0  0  0  0  0
    9.5765    1.4027   -8.8005 H   0  0  0  0  0  0  0  0  0  0  0  0
    9.0174   -0.2416   -8.3238 H   0  0  0  0  0  0  0  0  0  0  0  0
   10.6014    0.3886   -7.7186 H   0  0  0  0  0  0  0  0  0  0  0  0
    9.1605   -0.5708   -5.5965 H   0  0  0  0  0  0  0  0  0  0  0  0
    8.0880    0.2479   -3.6487 H   0  0  0  0  0  0  0  0  0  0  0  0
  1  2  1  0  0  0  0
  1 23  1  0  0  0  0
  1 24  1  0  0  0  0
  1 25  1  0  0  0  0
  2  3  1  0  0  0  0
  2 26  1  0  0  0  0
  2 27  1  0  0  0  0
  3  4  1  0  0  0  0
  3 28  1  0  0  0  0
  3 29  1  0  0  0  0
  4  5  1  0  0  0  0
  4 30  1  0  0  0  0
  4 31  1  0  0  0  0
  5  6  1  0  0  0  0
  5 32  1  0  0  0  0
  5 33  1  0  0  0  0
  6  7  1  0  0  0  0
  6 34  1  0  0  0  0
  6 35  1  0  0  0  0
  7  8  1  0  0  0  0
  7 22  1  0  0  0  0
  8  9  1  0  0  0  0
  8 14  2  0  0  0  0
  9 10  2  0  0  0  0
  9 36  1  0  0  0  0
 10 11  1  0  0  0  0
 10 37  1  0  0  0  0
 11 12  1  0  0  0  0
 11 13  2  0  0  0  0
 12 38  1  0  0  0  0
 12 39  1  0  0  0  0
 12 40  1  0  0  0  0
 13 14  1  0  0  0  0
 13 41  1  0  0  0  0
 14 15  1  0  0  0  0
 15 16  1  0  0  0  0
 16 17  1  0  0  0  0
 16 22  2  0  0  0  0
 17 18  2  0  0  0  0
 17 42  1  0  0  0  0
 18 19  1  0  0  0  0
 18 20  1  0  0  0  0
 19 43  1  0  0  0  0
 19 44  1  0  0  0  0
 19 45  1  0  0  0  0
 20 21  2  0  0  0  0
 20 46  1  0  0  0  0
 21 22  1  0  0  0  0
 21 47  1  0  0  0  0
M  END
