
  xtb     02032211353D
 xtb: 6.4.1 (23d549d)
 26 26  0     0  0            999 V2000
    3.5087   -1.1684    0.5481 C   0  0  0  0  0  0  0  0  0  0  0  0
    2.8693   -0.1809   -0.0651 C   0  0  0  0  0  0  0  0  0  0  0  0
    1.4186   -0.0088   -0.0885 C   0  0  0  0  0  0  0  0  0  0  0  0
    0.5755   -1.1153   -0.0502 C   0  0  0  0  0  0  0  0  0  0  0  0
   -0.8068   -1.0124   -0.0663 C   0  0  0  0  0  0  0  0  0  0  0  0
   -1.6218   -2.2716   -0.0633 C   0  0  0  0  0  0  0  0  0  0  0  0
   -1.3794    0.2634   -0.1283 C   0  0  0  0  0  0  0  0  0  0  0  0
   -2.8196    0.5245   -0.1380 C   0  0  0  0  0  0  0  0  0  0  0  0
   -3.7389   -0.0898    0.5935 C   0  0  0  0  0  0  0  0  0  0  0  0
   -0.5334    1.3709   -0.2060 C   0  0  0  0  0  0  0  0  0  0  0  0
    0.8443    1.2678   -0.1791 C   0  0  0  0  0  0  0  0  0  0  0  0
    1.6910    2.5049   -0.2317 C   0  0  0  0  0  0  0  0  0  0  0  0
    4.5825   -1.2461    0.5254 H   0  0  0  0  0  0  0  0  0  0  0  0
    2.9900   -1.9267    1.1105 H   0  0  0  0  0  0  0  0  0  0  0  0
    3.4431    0.5743   -0.5860 H   0  0  0  0  0  0  0  0  0  0  0  0
    1.0187   -2.1006   -0.0290 H   0  0  0  0  0  0  0  0  0  0  0  0
   -1.0679   -3.0761   -0.5435 H   0  0  0  0  0  0  0  0  0  0  0  0
   -2.5646   -2.1297   -0.5861 H   0  0  0  0  0  0  0  0  0  0  0  0
   -1.8408   -2.5843    0.9580 H   0  0  0  0  0  0  0  0  0  0  0  0
   -3.1209    1.3460   -0.7785 H   0  0  0  0  0  0  0  0  0  0  0  0
   -3.4954   -0.8715    1.2912 H   0  0  0  0  0  0  0  0  0  0  0  0
   -4.7772    0.1930    0.5414 H   0  0  0  0  0  0  0  0  0  0  0  0
   -0.9826    2.3532   -0.2711 H   0  0  0  0  0  0  0  0  0  0  0  0
    1.0669    3.3949   -0.2070 H   0  0  0  0  0  0  0  0  0  0  0  0
    2.2819    2.5287   -1.1477 H   0  0  0  0  0  0  0  0  0  0  0  0
    2.3772    2.5389    0.6133 H   0  0  0  0  0  0  0  0  0  0  0  0
  1  2  2  0  0  0  0
  2  3  1  0  0  0  0
  3  4  4  0  0  0  0
  4  5  4  0  0  0  0
  5  6  1  0  0  0  0
  5  7  4  0  0  0  0
  7  8  1  0  0  0  0
  8  9  2  0  0  0  0
  7 10  4  0  0  0  0
  3 11  4  0  0  0  0
 10 11  4  0  0  0  0
 11 12  1  0  0  0  0
  1 13  1  0  0  0  0
  1 14  1  0  0  0  0
  2 15  1  0  0  0  0
  4 16  1  0  0  0  0
  6 17  1  0  0  0  0
  6 18  1  0  0  0  0
  6 19  1  0  0  0  0
  8 20  1  0  0  0  0
  9 21  1  0  0  0  0
  9 22  1  0  0  0  0
 10 23  1  0  0  0  0
 12 24  1  0  0  0  0
 12 25  1  0  0  0  0
 12 26  1  0  0  0  0
M  END
