
  xtb     02032211353D
 xtb: 6.4.1 (23d549d)
 48 48  0     0  0            999 V2000
    4.7709    0.0010    1.5037 C   0  0  0  0  0  0  0  0  0  0  0  0
    3.5871    0.5994    1.5053 C   0  0  0  0  0  0  0  0  0  0  0  0
    2.4638    0.2714    0.6469 C   0  0  0  0  0  0  0  0  0  0  0  0
    1.1584    0.3972    1.0453 C   0  0  0  0  0  0  0  0  0  0  0  0
    0.3096   -0.0901    0.0879 N   0  0  0  0  0  0  0  0  0  0  0  0
   -1.4612   -0.0093    0.1028 Si  0  0  0  0  0  0  0  0  0  0  0  0
   -1.9618    0.4364    1.9051 C   0  0  0  0  0  0  0  0  0  0  0  0
   -3.4498    0.7615    2.0199 C   0  0  0  0  0  0  0  0  0  0  0  0
   -1.6068   -0.6654    2.9038 C   0  0  0  0  0  0  0  0  0  0  0  0
   -1.9330    1.4246   -1.0963 C   0  0  0  0  0  0  0  0  0  0  0  0
   -1.4132    2.7668   -0.5775 C   0  0  0  0  0  0  0  0  0  0  0  0
   -1.4086    1.1998   -2.5144 C   0  0  0  0  0  0  0  0  0  0  0  0
   -2.2692   -1.6982   -0.3643 C   0  0  0  0  0  0  0  0  0  0  0  0
   -3.6402   -1.4995   -1.0138 C   0  0  0  0  0  0  0  0  0  0  0  0
   -1.4160   -2.6056   -1.2483 C   0  0  0  0  0  0  0  0  0  0  0  0
    1.0977   -0.5150   -0.9469 C   0  0  0  0  0  0  0  0  0  0  0  0
    2.4236   -0.3106   -0.6653 C   0  0  0  0  0  0  0  0  0  0  0  0
    3.4831   -0.5673   -1.6232 C   0  0  0  0  0  0  0  0  0  0  0  0
    4.6234    0.1029   -1.7244 C   0  0  0  0  0  0  0  0  0  0  0  0
    5.5434    0.2792    2.2008 H   0  0  0  0  0  0  0  0  0  0  0  0
    5.0089   -0.7870    0.8103 H   0  0  0  0  0  0  0  0  0  0  0  0
    3.3747    1.3639    2.2446 H   0  0  0  0  0  0  0  0  0  0  0  0
    0.7830    0.7896    1.9681 H   0  0  0  0  0  0  0  0  0  0  0  0
   -1.4145    1.3373    2.1988 H   0  0  0  0  0  0  0  0  0  0  0  0
   -4.0513   -0.1161    1.7960 H   0  0  0  0  0  0  0  0  0  0  0  0
   -3.7334    1.5565    1.3351 H   0  0  0  0  0  0  0  0  0  0  0  0
   -3.6918    1.0822    3.0323 H   0  0  0  0  0  0  0  0  0  0  0  0
   -2.2141   -1.5503    2.7292 H   0  0  0  0  0  0  0  0  0  0  0  0
   -1.7946   -0.3289    3.9227 H   0  0  0  0  0  0  0  0  0  0  0  0
   -0.5612   -0.9514    2.8251 H   0  0  0  0  0  0  0  0  0  0  0  0
   -3.0239    1.4895   -1.1553 H   0  0  0  0  0  0  0  0  0  0  0  0
   -0.3303    2.7408   -0.4762 H   0  0  0  0  0  0  0  0  0  0  0  0
   -1.8426    3.0074    0.3914 H   0  0  0  0  0  0  0  0  0  0  0  0
   -1.6695    3.5664   -1.2708 H   0  0  0  0  0  0  0  0  0  0  0  0
   -0.3213    1.1965   -2.5193 H   0  0  0  0  0  0  0  0  0  0  0  0
   -1.7465    1.9975   -3.1745 H   0  0  0  0  0  0  0  0  0  0  0  0
   -1.7585    0.2544   -2.9214 H   0  0  0  0  0  0  0  0  0  0  0  0
   -2.4339   -2.2428    0.5716 H   0  0  0  0  0  0  0  0  0  0  0  0
   -3.5431   -1.0118   -1.9802 H   0  0  0  0  0  0  0  0  0  0  0  0
   -4.2880   -0.8895   -0.3906 H   0  0  0  0  0  0  0  0  0  0  0  0
   -4.1262   -2.4616   -1.1702 H   0  0  0  0  0  0  0  0  0  0  0  0
   -1.2623   -2.1607   -2.2287 H   0  0  0  0  0  0  0  0  0  0  0  0
   -1.9160   -3.5628   -1.3932 H   0  0  0  0  0  0  0  0  0  0  0  0
   -0.4473   -2.7938   -0.7935 H   0  0  0  0  0  0  0  0  0  0  0  0
    0.6654   -0.9120   -1.8418 H   0  0  0  0  0  0  0  0  0  0  0  0
    3.2518   -1.3422   -2.3459 H   0  0  0  0  0  0  0  0  0  0  0  0
    4.8748    0.9028   -1.0496 H   0  0  0  0  0  0  0  0  0  0  0  0
    5.3449   -0.1263   -2.4905 H   0  0  0  0  0  0  0  0  0  0  0  0
  1  2  2  0  0  0  0
  2  3  1  0  0  0  0
  3  4  2  0  0  0  0
  4  5  4  0  0  0  0
  5  6  1  0  0  0  0
  6  7  1  0  0  0  0
  7  8  1  0  0  0  0
  7  9  1  0  0  0  0
  6 10  1  0  0  0  0
 10 11  1  0  0  0  0
 10 12  1  0  0  0  0
  6 13  1  0  0  0  0
 13 14  1  0  0  0  0
 13 15  1  0  0  0  0
  5 16  4  0  0  0  0
  3 17  1  0  0  0  0
 16 17  2  0  0  0  0
 17 18  1  0  0  0  0
 18 19  2  0  0  0  0
  1 20  1  0  0  0  0
  1 21  1  0  0  0  0
  2 22  1  0  0  0  0
  4 23  1  0  0  0  0
  7 24  1  0  0  0  0
  8 25  1  0  0  0  0
  8 26  1  0  0  0  0
  8 27  1  0  0  0  0
  9 28  1  0  0  0  0
  9 29  1  0  0  0  0
  9 30  1  0  0  0  0
 10 31  1  0  0  0  0
 11 32  1  0  0  0  0
 11 33  1  0  0  0  0
 11 34  1  0  0  0  0
 12 35  1  0  0  0  0
 12 36  1  0  0  0  0
 12 37  1  0  0  0  0
 13 38  1  0  0  0  0
 14 39  1  0  0  0  0
 14 40  1  0  0  0  0
 14 41  1  0  0  0  0
 15 42  1  0  0  0  0
 15 43  1  0  0  0  0
 15 44  1  0  0  0  0
 16 45  1  0  0  0  0
 18 46  1  0  0  0  0
 19 47  1  0  0  0  0
 19 48  1  0  0  0  0
M  END
