35

C          0.03538       -1.43851        2.43319
C         -0.23184       -0.75829        1.12735
C          0.07618       -1.37992       -0.08996
C         -0.19339       -0.71249       -1.28462
C         -0.76561        0.56007       -1.25913
C         -1.06390        1.16150       -0.02400
C         -1.67870        2.50950        0.04010
C         -2.53120        2.87070        1.09610
C         -3.09640        4.14580        1.11690
C         -2.81740        5.05100        0.09290
C         -1.96270        4.66870       -0.95390
C         -1.64790        5.59730       -2.06620
C         -0.41062        5.53772       -2.73039
C         -0.14782        6.42224       -3.77767
C         -1.11082        7.35574       -4.15991
C         -2.33615        7.39352       -3.48155
C         -3.39974        8.37629       -3.85908
N         -2.56815        6.52191       -2.46280
N         -1.42370        3.41740       -0.94330
N         -0.78685        0.48418        1.12643
H          0.48474       -2.44359        2.28536
H         -0.91802       -1.55562        2.98975
H          0.73449       -0.82196        3.03568
H          0.51807       -2.36817       -0.11543
H          0.03952       -1.18213       -2.23155
H         -0.97086        1.06484       -2.19475
H         -2.75960        2.17830        1.89640
H         -3.75440        4.43240        1.92720
H         -3.26610        6.03590        0.12120
H          0.34646        4.81742       -2.44637
H          0.80266        6.38225       -4.29436
H         -0.90270        8.03848       -4.97431
H         -3.07786        9.02187       -4.70402
H         -3.63222        9.02296       -2.98721
H         -4.31737        7.82960       -4.16097
35

C         -1.99757       -2.29992        1.04980
C         -1.20990       -1.17262        0.45981
C          0.04021       -1.39429       -0.13284
C          0.73935       -0.31607       -0.67505
C          0.19176        0.96657       -0.62529
C         -1.06390        1.16150       -0.02400
C         -1.67870        2.50950        0.04010
C         -2.53120        2.87070        1.09610
C         -3.09640        4.14580        1.11690
C         -2.81740        5.05100        0.09290
C         -1.96270        4.66870       -0.95390
C         -1.64790        5.59730       -2.06620
C         -1.36579        5.11310       -3.35521
C         -1.07924        6.01417       -4.38196
C         -1.07617        7.38500       -4.12567
C         -1.36132        7.84112       -2.83197
C         -1.37201        9.30292       -2.51160
N         -1.63603        6.94306       -1.84741
N         -1.42370        3.41740       -0.94330
N         -1.72173        0.08765        0.49861
H         -1.46418       -3.26876        0.94588
H         -2.97594       -2.37728        0.53088
H         -2.17269       -2.10473        2.12827
H          0.46858       -2.38786       -0.17621
H          1.70578       -0.47427       -1.13600
H          0.74547        1.79330       -1.05218
H         -2.75960        2.17830        1.89640
H         -3.75440        4.43240        1.92720
H         -3.26610        6.03590        0.12120
H         -1.36605        4.05177       -3.57024
H         -0.86135        5.64893       -5.37751
H         -0.85509        8.07998       -4.92619
H         -1.13368        9.91856       -3.40519
H         -0.61887        9.51456       -1.72397
H         -2.37724        9.59228       -2.14031
35

C         -1.17128       -1.96937        2.02353
C         -0.81262       -1.01375        0.92923
C          0.05255       -1.38990       -0.10669
C          0.35714       -0.46972       -1.10961
C         -0.19954        0.80950       -1.07529
C         -1.06390        1.16150       -0.02400
C         -1.67870        2.50950        0.04010
C         -2.53120        2.87070        1.09610
C         -3.09640        4.14580        1.11690
C         -2.81740        5.05100        0.09290
C         -1.96270        4.66870       -0.95390
C         -1.64790        5.59730       -2.06620
C         -0.41062        5.53772       -2.73039
C         -0.14782        6.42224       -3.77767
C         -1.11082        7.35574       -4.15991
C         -2.33615        7.39352       -3.48155
C         -3.39974        8.37629       -3.85908
N         -2.56815        6.52191       -2.46280
N         -1.42370        3.41740       -0.94330
N         -1.34072        0.24032        0.94234
H         -0.67369       -2.95292        1.88580
H         -2.27022       -2.12670        2.03008
H         -0.85883       -1.54701        3.00121
H          0.48535       -2.38196       -0.13936
H          1.02380       -0.74824       -1.91551
H          0.04474        1.51221       -1.86195
H         -2.75960        2.17830        1.89640
H         -3.75440        4.43240        1.92720
H         -3.26610        6.03590        0.12120
H          0.34646        4.81742       -2.44637
H          0.80266        6.38225       -4.29436
H         -0.90270        8.03848       -4.97431
H         -3.07786        9.02187       -4.70402
H         -3.63222        9.02296       -2.98721
H         -4.31737        7.82960       -4.16097
35

C         -1.99757       -2.29992        1.04980
C         -1.20990       -1.17262        0.45981
C          0.04021       -1.39429       -0.13284
C          0.73935       -0.31607       -0.67505
C          0.19176        0.96657       -0.62529
C         -1.06390        1.16150       -0.02400
C         -1.67870        2.50950        0.04010
C         -2.53120        2.87070        1.09610
C         -3.09640        4.14580        1.11690
C         -2.81740        5.05100        0.09290
C         -1.96270        4.66870       -0.95390
C         -1.64790        5.59730       -2.06620
C         -0.41062        5.53772       -2.73039
C         -0.14782        6.42224       -3.77767
C         -1.11082        7.35574       -4.15991
C         -2.33615        7.39352       -3.48155
C         -3.39974        8.37629       -3.85908
N         -2.56815        6.52191       -2.46280
N         -1.42370        3.41740       -0.94330
N         -1.72173        0.08765        0.49861
H         -1.46418       -3.26876        0.94588
H         -2.97594       -2.37728        0.53088
H         -2.17269       -2.10473        2.12827
H          0.46858       -2.38786       -0.17621
H          1.70578       -0.47427       -1.13600
H          0.74547        1.79330       -1.05218
H         -2.75960        2.17830        1.89640
H         -3.75440        4.43240        1.92720
H         -3.26610        6.03590        0.12120
H          0.34646        4.81742       -2.44637
H          0.80266        6.38225       -4.29436
H         -0.90270        8.03848       -4.97431
H         -3.07786        9.02187       -4.70402
H         -3.63222        9.02296       -2.98721
H         -4.31737        7.82960       -4.16097
35

C          0.03538       -1.43851        2.43319
C         -0.23184       -0.75829        1.12735
C          0.07618       -1.37992       -0.08996
C         -0.19339       -0.71249       -1.28462
C         -0.76561        0.56007       -1.25913
C         -1.06390        1.16150       -0.02400
C         -1.67870        2.50950        0.04010
C         -2.53120        2.87070        1.09610
C         -3.09640        4.14580        1.11690
C         -2.81740        5.05100        0.09290
C         -1.96270        4.66870       -0.95390
C         -1.64790        5.59730       -2.06620
C         -0.80363        5.20513       -3.11928
C         -0.53209        6.10113       -4.15450
C         -1.09896        7.37524       -4.14027
C         -1.93751        7.74060       -3.07897
C         -2.56977        9.09587       -3.02344
N         -2.18579        6.85011       -2.08059
N         -1.42370        3.41740       -0.94330
N         -0.78685        0.48418        1.12643
H          0.48474       -2.44359        2.28536
H         -0.91802       -1.55562        2.98975
H          0.73449       -0.82196        3.03568
H          0.51807       -2.36817       -0.11543
H          0.03952       -1.18213       -2.23155
H         -0.97086        1.06484       -2.19475
H         -2.75960        2.17830        1.89640
H         -3.75440        4.43240        1.92720
H         -3.26610        6.03590        0.12120
H         -0.35741        4.21878       -3.14535
H          0.11689        5.80628       -4.96930
H         -0.88662        8.06596       -4.94682
H         -2.28351        9.71622       -3.89954
H         -2.24604        9.61751       -2.09853
H         -3.67443        8.98786       -3.01203
35

C          0.03538       -1.43851        2.43319
C         -0.23184       -0.75829        1.12735
C          0.07618       -1.37992       -0.08996
C         -0.19339       -0.71249       -1.28462
C         -0.76561        0.56007       -1.25913
C         -1.06390        1.16150       -0.02400
C         -1.67870        2.50950        0.04010
C         -2.53120        2.87070        1.09610
C         -3.09640        4.14580        1.11690
C         -2.81740        5.05100        0.09290
C         -1.96270        4.66870       -0.95390
C         -1.64790        5.59730       -2.06620
C         -1.36579        5.11310       -3.35521
C         -1.07924        6.01417       -4.38196
C         -1.07617        7.38500       -4.12567
C         -1.36132        7.84112       -2.83197
C         -1.37201        9.30292       -2.51160
N         -1.63603        6.94306       -1.84741
N         -1.42370        3.41740       -0.94330
N         -0.78685        0.48418        1.12643
H          0.48474       -2.44359        2.28536
H         -0.91802       -1.55562        2.98975
H          0.73449       -0.82196        3.03568
H          0.51807       -2.36817       -0.11543
H          0.03952       -1.18213       -2.23155
H         -0.97086        1.06484       -2.19475
H         -2.75960        2.17830        1.89640
H         -3.75440        4.43240        1.92720
H         -3.26610        6.03590        0.12120
H         -1.36605        4.05177       -3.57024
H         -0.86135        5.64893       -5.37751
H         -0.85509        8.07998       -4.92619
H         -1.13368        9.91856       -3.40519
H         -0.61887        9.51456       -1.72397
H         -2.37724        9.59228       -2.14031
35

C         -1.17128       -1.96937        2.02353
C         -0.81262       -1.01375        0.92923
C          0.05255       -1.38990       -0.10669
C          0.35714       -0.46972       -1.10961
C         -0.19954        0.80950       -1.07529
C         -1.06390        1.16150       -0.02400
C         -1.67870        2.50950        0.04010
C         -2.53120        2.87070        1.09610
C         -3.09640        4.14580        1.11690
C         -2.81740        5.05100        0.09290
C         -1.96270        4.66870       -0.95390
C         -1.64790        5.59730       -2.06620
C         -1.36579        5.11310       -3.35521
C         -1.07924        6.01417       -4.38196
C         -1.07617        7.38500       -4.12567
C         -1.36132        7.84112       -2.83197
C         -1.37201        9.30292       -2.51160
N         -1.63603        6.94306       -1.84741
N         -1.42370        3.41740       -0.94330
N         -1.34072        0.24032        0.94234
H         -0.67369       -2.95292        1.88580
H         -2.27022       -2.12670        2.03008
H         -0.85883       -1.54701        3.00121
H          0.48535       -2.38196       -0.13936
H          1.02380       -0.74824       -1.91551
H          0.04474        1.51221       -1.86195
H         -2.75960        2.17830        1.89640
H         -3.75440        4.43240        1.92720
H         -3.26610        6.03590        0.12120
H         -1.36605        4.05177       -3.57024
H         -0.86135        5.64893       -5.37751
H         -0.85509        8.07998       -4.92619
H         -1.13368        9.91856       -3.40519
H         -0.61887        9.51456       -1.72397
H         -2.37724        9.59228       -2.14031
35

C         -1.99757       -2.29992        1.04980
C         -1.20990       -1.17262        0.45981
C          0.04021       -1.39429       -0.13284
C          0.73935       -0.31607       -0.67505
C          0.19176        0.96657       -0.62529
C         -1.06390        1.16150       -0.02400
C         -1.67870        2.50950        0.04010
C         -2.53120        2.87070        1.09610
C         -3.09640        4.14580        1.11690
C         -2.81740        5.05100        0.09290
C         -1.96270        4.66870       -0.95390
C         -1.64790        5.59730       -2.06620
C         -0.80363        5.20513       -3.11928
C         -0.53209        6.10113       -4.15450
C         -1.09896        7.37524       -4.14027
C         -1.93751        7.74060       -3.07897
C         -2.56977        9.09587       -3.02344
N         -2.18579        6.85011       -2.08059
N         -1.42370        3.41740       -0.94330
N         -1.72173        0.08765        0.49861
H         -1.46418       -3.26876        0.94588
H         -2.97594       -2.37728        0.53088
H         -2.17269       -2.10473        2.12827
H          0.46858       -2.38786       -0.17621
H          1.70578       -0.47427       -1.13600
H          0.74547        1.79330       -1.05218
H         -2.75960        2.17830        1.89640
H         -3.75440        4.43240        1.92720
H         -3.26610        6.03590        0.12120
H         -0.35741        4.21878       -3.14535
H          0.11689        5.80628       -4.96930
H         -0.88662        8.06596       -4.94682
H         -2.28351        9.71622       -3.89954
H         -2.24604        9.61751       -2.09853
H         -3.67443        8.98786       -3.01203
35

C         -1.17128       -1.96937        2.02353
C         -0.81262       -1.01375        0.92923
C          0.05255       -1.38990       -0.10669
C          0.35714       -0.46972       -1.10961
C         -0.19954        0.80950       -1.07529
C         -1.06390        1.16150       -0.02400
C         -1.67870        2.50950        0.04010
C         -2.53120        2.87070        1.09610
C         -3.09640        4.14580        1.11690
C         -2.81740        5.05100        0.09290
C         -1.96270        4.66870       -0.95390
C         -1.64790        5.59730       -2.06620
C         -0.80363        5.20513       -3.11928
C         -0.53209        6.10113       -4.15450
C         -1.09896        7.37524       -4.14027
C         -1.93751        7.74060       -3.07897
C         -2.56977        9.09587       -3.02344
N         -2.18579        6.85011       -2.08059
N         -1.42370        3.41740       -0.94330
N         -1.34072        0.24032        0.94234
H         -0.67369       -2.95292        1.88580
H         -2.27022       -2.12670        2.03008
H         -0.85883       -1.54701        3.00121
H          0.48535       -2.38196       -0.13936
H          1.02380       -0.74824       -1.91551
H          0.04474        1.51221       -1.86195
H         -2.75960        2.17830        1.89640
H         -3.75440        4.43240        1.92720
H         -3.26610        6.03590        0.12120
H         -0.35741        4.21878       -3.14535
H          0.11689        5.80628       -4.96930
H         -0.88662        8.06596       -4.94682
H         -2.28351        9.71622       -3.89954
H         -2.24604        9.61751       -2.09853
H         -3.67443        8.98786       -3.01203
35

C          2.10515       -0.31413       -1.36037
C          0.76704       -0.21593       -0.69769
C          0.14154       -1.34694       -0.15666
C         -1.10377       -1.21049        0.45649
C         -1.71277        0.04312        0.52775
C         -1.06390        1.16150       -0.02400
C         -1.67870        2.50950        0.04010
C         -2.53120        2.87070        1.09610
C         -3.09640        4.14580        1.11690
C         -2.81740        5.05100        0.09290
C         -1.96270        4.66870       -0.95390
C         -1.64790        5.59730       -2.06620
C         -2.19661        6.89069       -2.10633
C         -1.87538        7.74260       -3.16430
C         -1.01351        7.30906       -4.17133
C         -0.47994        6.01517       -4.10692
C          0.45093        5.50845       -5.16348
N         -0.80935        5.20276       -3.06632
N         -1.42370        3.41740       -0.94330
N          0.15193        0.99531       -0.61827
H          2.48968       -1.35625       -1.35106
H          2.82981        0.33513       -0.82579
H          2.02233        0.02455       -2.41408
H          0.61077       -2.32154       -0.20716
H         -1.59710       -2.07646        0.87863
H         -2.67866        0.13362        1.00855
H         -2.75960        2.17830        1.89640
H         -3.75440        4.43240        1.92720
H         -3.26610        6.03590        0.12120
H         -2.86587        7.24239       -1.33104
H         -2.29370        8.74039       -3.20200
H         -0.76597        7.97457       -4.98897
H          0.63347        6.27362       -5.94802
H          0.01248        4.60768       -5.64177
H          1.42266        5.23745       -4.70049
