
 OpenBabel02012213463D

 17 17  0  0  0  0  0  0  0  0999 V2000
    2.9048   -0.0582   -0.0298 C   0  0  0  0  0  0  0  0  0  0  0  0
    1.4110   -0.0017   -0.0112 C   0  0  0  0  0  0  0  0  0  0  0  0
    0.6367   -1.1549   -0.0053 C   0  0  0  0  0  0  0  0  0  0  0  0
   -0.7163   -1.1630   -0.0063 N   0  0  0  0  0  0  0  0  0  0  0  0
   -1.3446    0.0354   -0.0125 C   0  0  0  0  0  0  0  0  0  0  0  0
   -2.8435    0.0257   -0.0347 C   0  0  0  0  0  0  0  0  0  0  0  0
   -0.6535    1.2426   -0.0100 C   0  0  0  0  0  0  0  0  0  0  0  0
    0.7392    1.2202   -0.0099 C   0  0  0  0  0  0  0  0  0  0  0  0
    3.2682   -1.0909   -0.0136 H   0  0  0  0  0  0  0  0  0  0  0  0
    3.3153    0.4556    0.8456 H   0  0  0  0  0  0  0  0  0  0  0  0
    3.2880    0.4177   -0.9379 H   0  0  0  0  0  0  0  0  0  0  0  0
    1.0919   -2.1418   -0.0023 H   0  0  0  0  0  0  0  0  0  0  0  0
   -3.2271   -0.9997   -0.0276 H   0  0  0  0  0  0  0  0  0  0  0  0
   -3.2095    0.5193   -0.9406 H   0  0  0  0  0  0  0  0  0  0  0  0
   -3.2400    0.5446    0.8433 H   0  0  0  0  0  0  0  0  0  0  0  0
   -1.1862    2.1879   -0.0136 H   0  0  0  0  0  0  0  0  0  0  0  0
    1.2928    2.1557   -0.0128 H   0  0  0  0  0  0  0  0  0  0  0  0
  1  2  1  0  0  0  0
  1  9  1  0  0  0  0
  1 10  1  0  0  0  0
  1 11  1  0  0  0  0
  2  3  1  0  0  0  0
  2  8  2  0  0  0  0
  3  4  2  0  0  0  0
  3 12  1  0  0  0  0
  4  5  1  0  0  0  0
  5  6  1  0  0  0  0
  5  7  2  0  0  0  0
  6 13  1  0  0  0  0
  6 14  1  0  0  0  0
  6 15  1  0  0  0  0
  7  8  1  0  0  0  0
  7 16  1  0  0  0  0
  8 17  1  0  0  0  0
M  END
