
  xtb     02032211353D
 xtb: 6.4.1 (23d549d)
 26 27  0     0  0            999 V2000
    3.6289    0.5238    0.7120 C   0  0  0  0  0  0  0  0  0  0  0  0
    2.8081    1.0987   -0.1557 C   0  0  0  0  0  0  0  0  0  0  0  0
    1.3551    0.9166   -0.1962 C   0  0  0  0  0  0  0  0  0  0  0  0
    0.5651    2.0422   -0.2803 C   0  0  0  0  0  0  0  0  0  0  0  0
   -0.8252    1.9603   -0.2393 C   0  0  0  0  0  0  0  0  0  0  0  0
   -1.4699    0.7485   -0.1179 C   0  0  0  0  0  0  0  0  0  0  0  0
   -2.9315    0.7049   -0.0925 C   0  0  0  0  0  0  0  0  0  0  0  0
   -3.6950    1.6047    0.5128 C   0  0  0  0  0  0  0  0  0  0  0  0
   -0.6900   -0.4422   -0.0632 C   0  0  0  0  0  0  0  0  0  0  0  0
   -1.2820   -1.7166    0.0744 C   0  0  0  0  0  0  0  0  0  0  0  0
   -0.5275   -2.8558    0.0812 C   0  0  0  0  0  0  0  0  0  0  0  0
    0.8631   -2.7778   -0.0682 C   0  0  0  0  0  0  0  0  0  0  0  0
    1.4731   -1.5593   -0.1681 C   0  0  0  0  0  0  0  0  0  0  0  0
    0.7295   -0.3600   -0.1291 C   0  0  0  0  0  0  0  0  0  0  0  0
    4.6852    0.7345    0.7148 H   0  0  0  0  0  0  0  0  0  0  0  0
    3.2749   -0.1591    1.4665 H   0  0  0  0  0  0  0  0  0  0  0  0
    3.1981    1.8256   -0.8589 H   0  0  0  0  0  0  0  0  0  0  0  0
    1.0333    3.0138   -0.3569 H   0  0  0  0  0  0  0  0  0  0  0  0
   -1.4078    2.8663   -0.3190 H   0  0  0  0  0  0  0  0  0  0  0  0
   -3.3976   -0.1159   -0.6216 H   0  0  0  0  0  0  0  0  0  0  0  0
   -3.2757    2.4230    1.0744 H   0  0  0  0  0  0  0  0  0  0  0  0
   -4.7698    1.5464    0.4858 H   0  0  0  0  0  0  0  0  0  0  0  0
   -2.3534   -1.7906    0.1794 H   0  0  0  0  0  0  0  0  0  0  0  0
   -1.0005   -3.8214    0.1862 H   0  0  0  0  0  0  0  0  0  0  0  0
    1.4486   -3.6849   -0.1037 H   0  0  0  0  0  0  0  0  0  0  0  0
    2.5429   -1.5028   -0.2973 H   0  0  0  0  0  0  0  0  0  0  0  0
  1  2  2  0  0  0  0
  2  3  1  0  0  0  0
  3  4  4  0  0  0  0
  4  5  4  0  0  0  0
  5  6  4  0  0  0  0
  6  7  1  0  0  0  0
  7  8  2  0  0  0  0
  6  9  4  0  0  0  0
  9 10  4  0  0  0  0
 10 11  2  0  0  0  0
 11 12  4  0  0  0  0
 12 13  2  0  0  0  0
  3 14  4  0  0  0  0
  9 14  4  0  0  0  0
 13 14  4  0  0  0  0
  1 15  1  0  0  0  0
  1 16  1  0  0  0  0
  2 17  1  0  0  0  0
  4 18  1  0  0  0  0
  5 19  1  0  0  0  0
  7 20  1  0  0  0  0
  8 21  1  0  0  0  0
  8 22  1  0  0  0  0
 10 23  1  0  0  0  0
 11 24  1  0  0  0  0
 12 25  1  0  0  0  0
 13 26  1  0  0  0  0
M  END
