
 OpenBabel02032211083D

 26 27  0  0  0  0  0  0  0  0999 V2000
    2.5186    0.0753    1.2334 C   0  0  0  0  0  0  0  0  0  0  0  0
    2.2874    0.1259   -0.0849 C   0  0  0  0  0  0  0  0  0  0  0  0
    3.1411    0.8997   -1.0020 C   0  0  0  0  0  0  0  0  0  0  0  0
    2.7570    2.2156   -1.2620 C   0  0  0  0  0  0  0  0  0  0  0  0
    3.5051    3.0122   -2.1240 C   0  0  0  0  0  0  0  0  0  0  0  0
    4.6740    2.5257   -2.7299 C   0  0  0  0  0  0  0  0  0  0  0  0
    5.3906    3.3964   -3.6930 C   0  0  0  0  0  0  0  0  0  0  0  0
    5.4782    4.7322   -3.6338 C   0  0  0  0  0  0  0  0  0  0  0  0
    5.0922    1.1832   -2.4658 C   0  0  0  0  0  0  0  0  0  0  0  0
    6.2696    0.6126   -3.0158 C   0  0  0  0  0  0  0  0  0  0  0  0
    6.6562   -0.7045   -2.7569 C   0  0  0  0  0  0  0  0  0  0  0  0
    5.8751   -1.5010   -1.9393 C   0  0  0  0  0  0  0  0  0  0  0  0
    4.7178   -0.9736   -1.3714 C   0  0  0  0  0  0  0  0  0  0  0  0
    4.3078    0.3626   -1.6027 C   0  0  0  0  0  0  0  0  0  0  0  0
    1.8764   -0.5076    1.8845 H   0  0  0  0  0  0  0  0  0  0  0  0
    3.3511    0.6031    1.6901 H   0  0  0  0  0  0  0  0  0  0  0  0
    1.4557   -0.4092   -0.5339 H   0  0  0  0  0  0  0  0  0  0  0  0
    1.8605    2.6288   -0.8038 H   0  0  0  0  0  0  0  0  0  0  0  0
    3.1511    4.0203   -2.3252 H   0  0  0  0  0  0  0  0  0  0  0  0
    5.8746    2.8933   -4.5266 H   0  0  0  0  0  0  0  0  0  0  0  0
    5.0267    5.3206   -2.8428 H   0  0  0  0  0  0  0  0  0  0  0  0
    6.0251    5.2767   -4.3977 H   0  0  0  0  0  0  0  0  0  0  0  0
    6.9240    1.1993   -3.6554 H   0  0  0  0  0  0  0  0  0  0  0  0
    7.5690   -1.0994   -3.1944 H   0  0  0  0  0  0  0  0  0  0  0  0
    6.1633   -2.5279   -1.7328 H   0  0  0  0  0  0  0  0  0  0  0  0
    4.1279   -1.6265   -0.7316 H   0  0  0  0  0  0  0  0  0  0  0  0
  1  2  2  0  0  0  0
  1 15  1  0  0  0  0
  1 16  1  0  0  0  0
  2  3  1  0  0  0  0
  2 17  1  0  0  0  0
  3  4  1  0  0  0  0
  3 14  2  0  0  0  0
  4  5  2  0  0  0  0
  4 18  1  0  0  0  0
  5  6  1  0  0  0  0
  5 19  1  0  0  0  0
  6  7  1  0  0  0  0
  6  9  2  0  0  0  0
  7  8  2  0  0  0  0
  7 20  1  0  0  0  0
  8 21  1  0  0  0  0
  8 22  1  0  0  0  0
  9 10  1  0  0  0  0
  9 14  1  0  0  0  0
 10 11  2  0  0  0  0
 10 23  1  0  0  0  0
 11 12  1  0  0  0  0
 11 24  1  0  0  0  0
 12 13  2  0  0  0  0
 12 25  1  0  0  0  0
 13 14  1  0  0  0  0
 13 26  1  0  0  0  0
M  END
