
  xtb     02032211083D
 xtb: 6.4.1 (23d549d)
 26 27  0     0  0            999 V2000
    1.8804    0.8147    1.1302 c   0  0  0  0  0  0  0  0  0  0  0  0
    2.4796    0.2523    0.0895 c   0  0  0  0  0  0  0  0  0  0  0  0
    3.3073    0.9733   -0.8764 c   0  0  0  0  0  0  0  0  0  0  0  0
    2.9592    2.2511   -1.2567 c   0  0  0  0  0  0  0  0  0  0  0  0
    3.7058    2.9611   -2.1950 c   0  0  0  0  0  0  0  0  0  0  0  0
    4.8179    2.4116   -2.7940 c   0  0  0  0  0  0  0  0  0  0  0  0
    5.5972    3.2034   -3.7452 c   0  0  0  0  0  0  0  0  0  0  0  0
    5.0716    4.0398   -4.6302 c   0  0  0  0  0  0  0  0  0  0  0  0
    5.2037    1.0861   -2.4422 c   0  0  0  0  0  0  0  0  0  0  0  0
    6.3030    0.4448   -3.0526 c   0  0  0  0  0  0  0  0  0  0  0  0
    6.6829   -0.8168   -2.6899 c   0  0  0  0  0  0  0  0  0  0  0  0
    5.9800   -1.5004   -1.6904 c   0  0  0  0  0  0  0  0  0  0  0  0
    4.8946   -0.9196   -1.0968 c   0  0  0  0  0  0  0  0  0  0  0  0
    4.4561    0.3704   -1.4658 c   0  0  0  0  0  0  0  0  0  0  0  0
    1.2602    0.2462    1.8020 h   0  0  0  0  0  0  0  0  0  0  0  0
    1.9999    1.8597    1.3617 h   0  0  0  0  0  0  0  0  0  0  0  0
    2.3516   -0.8075   -0.0852 h   0  0  0  0  0  0  0  0  0  0  0  0
    2.0789    2.7095   -0.8307 h   0  0  0  0  0  0  0  0  0  0  0  0
    3.4138    3.9709   -2.4439 h   0  0  0  0  0  0  0  0  0  0  0  0
    6.6721    3.0948   -3.6911 h   0  0  0  0  0  0  0  0  0  0  0  0
    4.0064    4.1614   -4.7374 h   0  0  0  0  0  0  0  0  0  0  0  0
    5.6874    4.6215   -5.2949 h   0  0  0  0  0  0  0  0  0  0  0  0
    6.8479    0.9606   -3.8281 h   0  0  0  0  0  0  0  0  0  0  0  0
    7.5276   -1.2902   -3.1688 h   0  0  0  0  0  0  0  0  0  0  0  0
    6.2980   -2.4896   -1.3948 h   0  0  0  0  0  0  0  0  0  0  0  0
    4.3649   -1.4545   -0.3237 h   0  0  0  0  0  0  0  0  0  0  0  0
  1  2  2  0  0  0  0
  2  3  1  0  0  0  0
  3  4  4  0  0  0  0
  4  5  4  0  0  0  0
  5  6  4  0  0  0  0
  6  7  1  0  0  0  0
  7  8  2  0  0  0  0
  6  9  4  0  0  0  0
  9 10  4  0  0  0  0
 10 11  2  0  0  0  0
 11 12  4  0  0  0  0
 12 13  2  0  0  0  0
  3 14  4  0  0  0  0
  9 14  4  0  0  0  0
 13 14  4  0  0  0  0
  1 15  1  0  0  0  0
  1 16  1  0  0  0  0
  2 17  1  0  0  0  0
  4 18  1  0  0  0  0
  5 19  1  0  0  0  0
  7 20  1  0  0  0  0
  8 21  1  0  0  0  0
  8 22  1  0  0  0  0
 10 23  1  0  0  0  0
 11 24  1  0  0  0  0
 12 25  1  0  0  0  0
 13 26  1  0  0  0  0
M  END
