
  xtb     02012213393D
 xtb: 6.4.1 (23d549d)
 35 38  0     0  0            999 V2000
   -0.1801    1.5551    2.4004 c   0  0  0  0  0  0  0  0  0  0  0  0
   -0.2379    0.6961    1.1739 c   0  0  0  0  0  0  0  0  0  0  0  0
   -0.9867   -0.4700    1.1554 c   0  0  0  0  0  0  0  0  0  0  0  0
   -1.0367   -1.2654    0.0148 c   0  0  0  0  0  0  0  0  0  0  0  0
   -1.7860   -2.4513    0.0204 n   0  0  0  0  0  0  0  0  0  0  0  0
   -2.7214   -2.8218   -0.9241 c   0  0  0  0  0  0  0  0  0  0  0  0
   -3.2504   -4.0892   -0.5871 c   0  0  0  0  0  0  0  0  0  0  0  0
   -4.2279   -4.6683   -1.3856 c   0  0  0  0  0  0  0  0  0  0  0  0
   -4.6691   -3.9783   -2.4967 c   0  0  0  0  0  0  0  0  0  0  0  0
   -4.1584   -2.7198   -2.8080 c   0  0  0  0  0  0  0  0  0  0  0  0
   -3.1855   -2.1230   -2.0296 c   0  0  0  0  0  0  0  0  0  0  0  0
   -1.6955   -3.4573    0.9610 c   0  0  0  0  0  0  0  0  0  0  0  0
   -2.5889   -4.4989    0.6196 c   0  0  0  0  0  0  0  0  0  0  0  0
   -2.6655   -5.6361    1.4131 c   0  0  0  0  0  0  0  0  0  0  0  0
   -1.8508   -5.7240    2.5240 c   0  0  0  0  0  0  0  0  0  0  0  0
   -0.9577   -4.7023    2.8399 c   0  0  0  0  0  0  0  0  0  0  0  0
   -0.8631   -3.5615    2.0664 c   0  0  0  0  0  0  0  0  0  0  0  0
   -0.3375   -0.8846   -1.1251 c   0  0  0  0  0  0  0  0  0  0  0  0
    0.3991    0.2860   -1.1135 c   0  0  0  0  0  0  0  0  0  0  0  0
    0.4531    1.0683    0.0253 c   0  0  0  0  0  0  0  0  0  0  0  0
   -0.6793    1.0750    3.2381 h   0  0  0  0  0  0  0  0  0  0  0  0
   -0.6635    2.5136    2.2130 h   0  0  0  0  0  0  0  0  0  0  0  0
    0.8546    1.7539    2.6756 h   0  0  0  0  0  0  0  0  0  0  0  0
   -1.5495   -0.7658    2.0290 h   0  0  0  0  0  0  0  0  0  0  0  0
   -4.6342   -5.6371   -1.1359 h   0  0  0  0  0  0  0  0  0  0  0  0
   -5.4270   -4.4119   -3.1322 h   0  0  0  0  0  0  0  0  0  0  0  0
   -4.5341   -2.1976   -3.6757 h   0  0  0  0  0  0  0  0  0  0  0  0
   -2.8072   -1.1405   -2.2691 h   0  0  0  0  0  0  0  0  0  0  0  0
   -3.3465   -6.4346    1.1593 h   0  0  0  0  0  0  0  0  0  0  0  0
   -1.8959   -6.5991    3.1552 h   0  0  0  0  0  0  0  0  0  0  0  0
   -0.3220   -4.8062    3.7071 h   0  0  0  0  0  0  0  0  0  0  0  0
   -0.1554   -2.7831    2.3090 h   0  0  0  0  0  0  0  0  0  0  0  0
   -0.3619   -1.5120   -2.0032 h   0  0  0  0  0  0  0  0  0  0  0  0
    0.9435    0.5833   -1.9977 h   0  0  0  0  0  0  0  0  0  0  0  0
    1.0353    1.9782    0.0274 h   0  0  0  0  0  0  0  0  0  0  0  0
  1  2  1  0  0  0  0
  2  3  4  0  0  0  0
  3  4  4  0  0  0  0
  4  5  1  0  0  0  0
  5  6  1  0  0  0  0
  6  7  4  0  0  0  0
  7  8  4  0  0  0  0
  8  9  4  0  0  0  0
  9 10  4  0  0  0  0
  6 11  4  0  0  0  0
 10 11  4  0  0  0  0
  5 12  1  0  0  0  0
  7 13  1  0  0  0  0
 12 13  4  0  0  0  0
 13 14  4  0  0  0  0
 14 15  4  0  0  0  0
 15 16  4  0  0  0  0
 12 17  4  0  0  0  0
 16 17  4  0  0  0  0
  4 18  4  0  0  0  0
 18 19  4  0  0  0  0
  2 20  4  0  0  0  0
 19 20  4  0  0  0  0
  1 21  1  0  0  0  0
  1 22  1  0  0  0  0
  1 23  1  0  0  0  0
  3 24  1  0  0  0  0
  8 25  1  0  0  0  0
  9 26  1  0  0  0  0
 10 27  1  0  0  0  0
 11 28  1  0  0  0  0
 14 29  1  0  0  0  0
 15 30  1  0  0  0  0
 16 31  1  0  0  0  0
 17 32  1  0  0  0  0
 18 33  1  0  0  0  0
 19 34  1  0  0  0  0
 20 35  1  0  0  0  0
M  END
