
  xtb     02032211353D
 xtb: 6.4.1 (23d549d)
 53 53  0     0  0            999 V2000
    3.7644   -0.4856    2.7688 C   0  0  0  0  0  0  0  0  0  0  0  0
    2.5224   -0.1241    2.4556 C   0  0  0  0  0  0  0  0  0  0  0  0
    1.8256   -0.5259    1.2644 C   0  0  0  0  0  0  0  0  0  0  0  0
    2.5398   -1.6680    0.1685 S   0  0  0  0  0  0  0  0  0  0  0  0
    1.1556   -1.5965   -0.8777 C   0  0  0  0  0  0  0  0  0  0  0  0
    1.1175   -2.3688   -2.0895 C   0  0  0  0  0  0  0  0  0  0  0  0
    2.0364   -3.2606   -2.4522 C   0  0  0  0  0  0  0  0  0  0  0  0
    0.1971   -0.7316   -0.3900 C   0  0  0  0  0  0  0  0  0  0  0  0
   -1.1169   -0.5293   -1.0846 C   0  0  0  0  0  0  0  0  0  0  0  0
   -2.0646   -1.7196   -0.8714 C   0  0  0  0  0  0  0  0  0  0  0  0
   -2.5528   -1.8481    0.5726 C   0  0  0  0  0  0  0  0  0  0  0  0
   -3.6641   -0.8620    0.9403 C   0  0  0  0  0  0  0  0  0  0  0  0
   -5.0279   -1.2652    0.3830 C   0  0  0  0  0  0  0  0  0  0  0  0
   -6.1108   -0.2643    0.7677 C   0  0  0  0  0  0  0  0  0  0  0  0
    0.5794   -0.1213    0.8314 C   0  0  0  0  0  0  0  0  0  0  0  0
   -0.2230    0.9081    1.5704 C   0  0  0  0  0  0  0  0  0  0  0  0
    0.3070    2.3272    1.3195 C   0  0  0  0  0  0  0  0  0  0  0  0
    0.1544    2.7546   -0.1375 C   0  0  0  0  0  0  0  0  0  0  0  0
    0.7533    4.1363   -0.3876 C   0  0  0  0  0  0  0  0  0  0  0  0
    0.5200    4.6444   -1.8107 C   0  0  0  0  0  0  0  0  0  0  0  0
    1.2572    3.8290   -2.8667 C   0  0  0  0  0  0  0  0  0  0  0  0
    4.2354   -0.1585    3.6788 H   0  0  0  0  0  0  0  0  0  0  0  0
    4.3467   -1.1191    2.1204 H   0  0  0  0  0  0  0  0  0  0  0  0
    1.9678    0.5187    3.1261 H   0  0  0  0  0  0  0  0  0  0  0  0
    0.2675   -2.1855   -2.7332 H   0  0  0  0  0  0  0  0  0  0  0  0
    2.8916   -3.4717   -1.8318 H   0  0  0  0  0  0  0  0  0  0  0  0
    1.9603   -3.8062   -3.3760 H   0  0  0  0  0  0  0  0  0  0  0  0
   -0.9417   -0.4072   -2.1565 H   0  0  0  0  0  0  0  0  0  0  0  0
   -1.5910    0.3845   -0.7305 H   0  0  0  0  0  0  0  0  0  0  0  0
   -1.5392   -2.6361   -1.1475 H   0  0  0  0  0  0  0  0  0  0  0  0
   -2.9206   -1.6143   -1.5403 H   0  0  0  0  0  0  0  0  0  0  0  0
   -1.7010   -1.7063    1.2413 H   0  0  0  0  0  0  0  0  0  0  0  0
   -2.9254   -2.8625    0.7327 H   0  0  0  0  0  0  0  0  0  0  0  0
   -3.4156    0.1364    0.5744 H   0  0  0  0  0  0  0  0  0  0  0  0
   -3.7378   -0.8021    2.0290 H   0  0  0  0  0  0  0  0  0  0  0  0
   -5.2943   -2.2529    0.7661 H   0  0  0  0  0  0  0  0  0  0  0  0
   -4.9774   -1.3361   -0.7053 H   0  0  0  0  0  0  0  0  0  0  0  0
   -6.1938   -0.1891    1.8499 H   0  0  0  0  0  0  0  0  0  0  0  0
   -7.0756   -0.5710    0.3702 H   0  0  0  0  0  0  0  0  0  0  0  0
   -5.8765    0.7228    0.3742 H   0  0  0  0  0  0  0  0  0  0  0  0
   -0.1837    0.6982    2.6419 H   0  0  0  0  0  0  0  0  0  0  0  0
   -1.2685    0.8584    1.2696 H   0  0  0  0  0  0  0  0  0  0  0  0
    1.3633    2.3703    1.5940 H   0  0  0  0  0  0  0  0  0  0  0  0
   -0.2348    3.0260    1.9619 H   0  0  0  0  0  0  0  0  0  0  0  0
   -0.9061    2.7729   -0.4026 H   0  0  0  0  0  0  0  0  0  0  0  0
    0.6489    2.0196   -0.7739 H   0  0  0  0  0  0  0  0  0  0  0  0
    1.8270    4.1050   -0.1880 H   0  0  0  0  0  0  0  0  0  0  0  0
    0.3079    4.8458    0.3152 H   0  0  0  0  0  0  0  0  0  0  0  0
    0.8562    5.6825   -1.8689 H   0  0  0  0  0  0  0  0  0  0  0  0
   -0.5512    4.6329   -2.0262 H   0  0  0  0  0  0  0  0  0  0  0  0
    2.3217    3.7945   -2.6451 H   0  0  0  0  0  0  0  0  0  0  0  0
    1.1260    4.2774   -3.8491 H   0  0  0  0  0  0  0  0  0  0  0  0
    0.8817    2.8099   -2.9074 H   0  0  0  0  0  0  0  0  0  0  0  0
  1  2  2  0  0  0  0
  2  3  1  0  0  0  0
  3  4  1  0  0  0  0
  4  5  1  0  0  0  0
  5  6  1  0  0  0  0
  6  7  2  0  0  0  0
  5  8  4  0  0  0  0
  8  9  1  0  0  0  0
  9 10  1  0  0  0  0
 10 11  1  0  0  0  0
 11 12  1  0  0  0  0
 12 13  1  0  0  0  0
 13 14  1  0  0  0  0
  3 15  4  0  0  0  0
  8 15  4  0  0  0  0
 15 16  1  0  0  0  0
 16 17  1  0  0  0  0
 17 18  1  0  0  0  0
 18 19  1  0  0  0  0
 19 20  1  0  0  0  0
 20 21  1  0  0  0  0
  1 22  1  0  0  0  0
  1 23  1  0  0  0  0
  2 24  1  0  0  0  0
  6 25  1  0  0  0  0
  7 26  1  0  0  0  0
  7 27  1  0  0  0  0
  9 28  1  0  0  0  0
  9 29  1  0  0  0  0
 10 30  1  0  0  0  0
 10 31  1  0  0  0  0
 11 32  1  0  0  0  0
 11 33  1  0  0  0  0
 12 34  1  0  0  0  0
 12 35  1  0  0  0  0
 13 36  1  0  0  0  0
 13 37  1  0  0  0  0
 14 38  1  0  0  0  0
 14 39  1  0  0  0  0
 14 40  1  0  0  0  0
 16 41  1  0  0  0  0
 16 42  1  0  0  0  0
 17 43  1  0  0  0  0
 17 44  1  0  0  0  0
 18 45  1  0  0  0  0
 18 46  1  0  0  0  0
 19 47  1  0  0  0  0
 19 48  1  0  0  0  0
 20 49  1  0  0  0  0
 20 50  1  0  0  0  0
 21 51  1  0  0  0  0
 21 52  1  0  0  0  0
 21 53  1  0  0  0  0
M  END
