
 OpenBabel02032210503D

 19 19  0  0  0  0  0  0  0  0999 V2000
    1.1249    0.2441    0.3314 C   0  0  0  0  0  0  0  0  0  0  0  0
    2.2950   -0.1197   -0.2109 C   0  0  0  0  0  0  0  0  0  0  0  0
    3.0264    0.6417   -1.2631 C   0  0  0  0  0  0  0  0  0  0  0  0
    4.2433    0.1263   -1.7286 C   0  0  0  0  0  0  0  0  0  0  0  0
    4.9487    0.7820   -2.6831 N   0  0  0  0  0  0  0  0  0  0  0  0
    4.5149    1.9488   -3.2228 C   0  0  0  0  0  0  0  0  0  0  0  0
    3.3040    2.5249   -2.8075 C   0  0  0  0  0  0  0  0  0  0  0  0
    2.8942    3.8111   -3.4507 C   0  0  0  0  0  0  0  0  0  0  0  0
    1.7738    4.5198   -3.2242 C   0  0  0  0  0  0  0  0  0  0  0  0
    0.8166    4.1431   -2.3414 F   0  0  0  0  0  0  0  0  0  0  0  0
    1.5791    5.6740   -3.9146 F   0  0  0  0  0  0  0  0  0  0  0  0
    2.5605    1.8529   -1.8144 C   0  0  0  0  0  0  0  0  0  0  0  0
    0.6741   -0.3829    1.0942 H   0  0  0  0  0  0  0  0  0  0  0  0
    0.5938    1.1427    0.0483 H   0  0  0  0  0  0  0  0  0  0  0  0
    2.7395   -1.0435    0.1500 H   0  0  0  0  0  0  0  0  0  0  0  0
    4.6363   -0.8015   -1.3318 H   0  0  0  0  0  0  0  0  0  0  0  0
    5.1205    2.4275   -3.9821 H   0  0  0  0  0  0  0  0  0  0  0  0
    3.5763    4.2255   -4.1890 H   0  0  0  0  0  0  0  0  0  0  0  0
    1.6333    2.2580   -1.4668 H   0  0  0  0  0  0  0  0  0  0  0  0
  1  2  2  0  0  0  0
  1 13  1  0  0  0  0
  1 14  1  0  0  0  0
  2  3  1  0  0  0  0
  2 15  1  0  0  0  0
  3  4  1  0  0  0  0
  3 12  2  0  0  0  0
  4  5  2  0  0  0  0
  4 16  1  0  0  0  0
  5  6  1  0  0  0  0
  6  7  2  0  0  0  0
  6 17  1  0  0  0  0
  7  8  1  0  0  0  0
  7 12  1  0  0  0  0
  8  9  2  0  0  0  0
  8 18  1  0  0  0  0
  9 10  1  0  0  0  0
  9 11  1  0  0  0  0
 12 19  1  0  0  0  0
M  END
