
  xtb     02032211363D
 xtb: 6.4.1 (23d549d)
 24 24  0     0  0            999 V2000
    3.4680    1.7551    0.4025 C   0  0  0  0  0  0  0  0  0  0  0  0
    2.3307    1.7466   -0.2793 C   0  0  0  0  0  0  0  0  0  0  0  0
    1.2786    0.7498   -0.1697 C   0  0  0  0  0  0  0  0  0  0  0  0
   -0.0857    1.0798   -0.2417 C   0  0  0  0  0  0  0  0  0  0  0  0
   -0.8140   -0.0699    0.0032 C   0  0  0  0  0  0  0  0  0  0  0  0
   -2.2396   -0.3375    0.0660 C   0  0  0  0  0  0  0  0  0  0  0  0
   -2.7039   -1.4335    0.3025 O   0  0  0  0  0  0  0  0  0  0  0  0
   -2.9737    0.7626   -0.1720 O   0  0  0  0  0  0  0  0  0  0  0  0
   -4.3860    0.6229   -0.1334 C   0  0  0  0  0  0  0  0  0  0  0  0
    0.0775   -1.0803    0.2118 N   0  0  0  0  0  0  0  0  0  0  0  0
    1.3510   -0.6260    0.0993 C   0  0  0  0  0  0  0  0  0  0  0  0
    2.4403   -1.5703    0.1865 C   0  0  0  0  0  0  0  0  0  0  0  0
    3.6585   -1.4217   -0.3234 C   0  0  0  0  0  0  0  0  0  0  0  0
    4.1807    2.5553    0.2978 H   0  0  0  0  0  0  0  0  0  0  0  0
    3.7231    0.9701    1.0939 H   0  0  0  0  0  0  0  0  0  0  0  0
    2.0895    2.5774   -0.9316 H   0  0  0  0  0  0  0  0  0  0  0  0
   -0.4955    2.0519   -0.4292 H   0  0  0  0  0  0  0  0  0  0  0  0
   -4.7905    1.0424   -1.0542 H   0  0  0  0  0  0  0  0  0  0  0  0
   -4.7707    1.1748    0.7256 H   0  0  0  0  0  0  0  0  0  0  0  0
   -4.6531   -0.4322   -0.0465 H   0  0  0  0  0  0  0  0  0  0  0  0
   -0.2038   -2.0338    0.3822 H   0  0  0  0  0  0  0  0  0  0  0  0
    2.1796   -2.5011    0.6787 H   0  0  0  0  0  0  0  0  0  0  0  0
    3.9496   -0.5304   -0.8502 H   0  0  0  0  0  0  0  0  0  0  0  0
    4.3986   -2.1976   -0.2333 H   0  0  0  0  0  0  0  0  0  0  0  0
  1  2  2  0  0  0  0
  2  3  1  0  0  0  0
  3  4  4  0  0  0  0
  4  5  4  0  0  0  0
  5  6  1  0  0  0  0
  6  7  2  0  0  0  0
  6  8  1  0  0  0  0
  8  9  1  0  0  0  0
  5 10  1  0  0  0  0
  3 11  4  0  0  0  0
 10 11  4  0  0  0  0
 11 12  1  0  0  0  0
 12 13  2  0  0  0  0
  1 14  1  0  0  0  0
  1 15  1  0  0  0  0
  2 16  1  0  0  0  0
  4 17  1  0  0  0  0
  9 18  1  0  0  0  0
  9 19  1  0  0  0  0
  9 20  1  0  0  0  0
 10 21  1  0  0  0  0
 12 22  1  0  0  0  0
 13 23  1  0  0  0  0
 13 24  1  0  0  0  0
M  END
