
 OpenBabel02032211103D

 20 20  0  0  0  0  0  0  0  0999 V2000
    1.2194   -0.5228    0.0919 C   0  0  0  0  0  0  0  0  0  0  0  0
    2.3281    0.2078   -0.0886 C   0  0  0  0  0  0  0  0  0  0  0  0
    3.0333    0.9690    0.9817 C   0  0  0  0  0  0  0  0  0  0  0  0
    2.6094    0.9745    2.3238 C   0  0  0  0  0  0  0  0  0  0  0  0
    3.3081    1.7093    3.2812 C   0  0  0  0  0  0  0  0  0  0  0  0
    4.4346    2.4503    2.9219 C   0  0  0  0  0  0  0  0  0  0  0  0
    5.0856    3.1540    3.8835 F   0  0  0  0  0  0  0  0  0  0  0  0
    4.8846    2.4645    1.5886 C   0  0  0  0  0  0  0  0  0  0  0  0
    6.0934    3.2726    1.2499 C   0  0  0  0  0  0  0  0  0  0  0  0
    6.6411    3.3666    0.0306 C   0  0  0  0  0  0  0  0  0  0  0  0
    4.1722    1.7156    0.6269 C   0  0  0  0  0  0  0  0  0  0  0  0
    0.7786   -1.0400   -0.7542 H   0  0  0  0  0  0  0  0  0  0  0  0
    0.7290   -0.6253    1.0503 H   0  0  0  0  0  0  0  0  0  0  0  0
    2.7351    0.2455   -1.0955 H   0  0  0  0  0  0  0  0  0  0  0  0
    1.7443    0.4181    2.6517 H   0  0  0  0  0  0  0  0  0  0  0  0
    2.9725    1.7052    4.3104 H   0  0  0  0  0  0  0  0  0  0  0  0
    6.5767    3.8335    2.0451 H   0  0  0  0  0  0  0  0  0  0  0  0
    6.2502    2.8530   -0.8370 H   0  0  0  0  0  0  0  0  0  0  0  0
    7.5228    3.9836   -0.1109 H   0  0  0  0  0  0  0  0  0  0  0  0
    4.4866    1.7038   -0.4057 H   0  0  0  0  0  0  0  0  0  0  0  0
  1  2  2  0  0  0  0
  1 12  1  0  0  0  0
  1 13  1  0  0  0  0
  2  3  1  0  0  0  0
  2 14  1  0  0  0  0
  3  4  1  0  0  0  0
  3 11  2  0  0  0  0
  4  5  2  0  0  0  0
  4 15  1  0  0  0  0
  5  6  1  0  0  0  0
  5 16  1  0  0  0  0
  6  7  1  0  0  0  0
  6  8  2  0  0  0  0
  8  9  1  0  0  0  0
  8 11  1  0  0  0  0
  9 10  2  0  0  0  0
  9 17  1  0  0  0  0
 10 18  1  0  0  0  0
 10 19  1  0  0  0  0
 11 20  1  0  0  0  0
M  END
