53

C          2.58866       -0.25484       -1.51854
C          2.80752        0.28273       -0.31283
C          1.84825        1.17827        0.36391
C          1.98448        1.79597        1.60205
C          0.87128        2.58254        1.98114
C          0.80964        3.36108        3.28171
C          2.06202        3.22736        4.16304
C          1.92030        4.02510        5.46440
C          0.72740        3.50960        6.28060
C          0.55530        4.30440        7.57920
C          0.29661        5.78516        7.27344
C         -0.98328        5.96514        6.45031
C         -1.22382        7.44614        6.13502
C         -2.51226        7.63454        5.32648
C         -3.72903        7.13020        6.11105
C         -5.01634        7.30313        5.29732
C         -4.95487        6.50775        3.99664
C         -0.15187        2.56749        1.00653
C         -1.48853        3.21797        0.96037
C         -2.64399        2.70767        1.39828
S          0.36593        1.61033       -0.27825
H          3.33966       -0.89920       -1.96423
H          1.68294       -0.06144       -2.08137
H          3.74287        0.05806        0.19018
H          2.86627        1.67254        2.21124
H         -0.06572        3.00961        3.86615
H          0.69439        4.43824        3.02850
H          2.94326        3.61249        3.60527
H          2.22318        2.15465        4.41348
H          1.76590        5.09974        5.22361
H          2.84989        3.92159        6.06582
H          0.88530        2.43560        6.52540
H         -0.19720        3.60470        5.66940
H          1.47978        4.21367        8.18956
H         -0.30044        3.89032        8.15694
H          1.15971        6.20272        6.70863
H          0.19398        6.34169        8.23151
H         -1.84836        5.56909        7.02705
H         -0.89395        5.39366        5.50022
H         -0.36271        7.84304        5.55296
H         -1.30395        8.01487        7.08788
H         -2.43217        7.06953        4.37157
H         -2.64541        8.71423        5.09417
H         -3.81586        7.70163        7.06173
H         -3.58961        6.05309        6.35233
H         -5.16342        8.37802        5.05431
H         -5.88560        6.94956        5.89392
H         -4.10582        6.85681        3.37094
H         -5.89804        6.65011        3.42857
H         -4.82885        5.42517        4.21232
H         -1.53102        4.20614        0.50998
H         -2.74291        1.73513        1.84657
H         -3.55306        3.29167        1.29337
53

C          0.86947        9.56809        2.41481
C          1.40780        8.44993        2.91532
C          0.81571        7.10991        2.73111
C          1.28507        5.89504        3.21783
C          0.49625        4.78047        2.84752
C          0.80964        3.36108        3.28171
C          2.06202        3.22736        4.16304
C          1.92030        4.02510        5.46440
C          0.72740        3.50960        6.28060
C          0.55530        4.30440        7.57920
C          0.29661        5.78516        7.27344
C         -0.98328        5.96514        6.45031
C         -1.22382        7.44614        6.13502
C         -2.51226        7.63454        5.32648
C         -3.72903        7.13020        6.11105
C         -5.01634        7.30313        5.29732
C         -6.23172        6.81943        6.08287
C         -0.61116        5.14912        2.05088
C         -1.69459        4.34570        1.42429
C         -2.87667        4.03380        1.96527
S         -0.58092        6.82147        1.85787
H          1.35140       10.52380        2.59422
H         -0.04793        9.55937        1.83790
H          2.32133        8.53217        3.49590
H          2.17742        5.82405        3.81998
H          0.95313        2.73517        2.37671
H         -0.05514        2.98734        3.87345
H          2.94326        3.61249        3.60527
H          2.22318        2.15465        4.41348
H          1.76590        5.09974        5.22361
H          2.84989        3.92159        6.06582
H          0.88530        2.43560        6.52540
H         -0.19720        3.60470        5.66940
H          1.47978        4.21367        8.18956
H         -0.30044        3.89032        8.15694
H          1.15971        6.20272        6.70863
H          0.19398        6.34169        8.23151
H         -1.84836        5.56909        7.02705
H         -0.89395        5.39366        5.50022
H         -0.36271        7.84304        5.55296
H         -1.30395        8.01487        7.08788
H         -2.43217        7.06953        4.37157
H         -2.64541        8.71423        5.09417
H         -3.81586        7.70163        7.06173
H         -3.58961        6.05309        6.35233
H         -4.94330        6.71982        4.35367
H         -5.15647        8.37673        5.04374
H         -6.12663        5.74162        6.33084
H         -7.14837        6.95653        5.47171
H         -6.33992        7.40170        7.02289
H         -1.49725        3.96040        0.42743
H         -3.18877        4.33599        2.94907
H         -3.57510        3.42836        1.39597
53

C          4.08617        9.58012        7.57296
C          4.09151        9.47748        6.23878
C          4.17533        8.18863        5.52323
C          4.25960        6.91288        6.06955
C          4.34700        5.87755        5.10931
C          4.42861        4.40832        5.47822
C          3.21854        3.88242        6.26705
C          1.92030        4.02510        5.46440
C          0.72740        3.50960        6.28060
C          0.55530        4.30440        7.57920
C          0.29661        5.78516        7.27344
C          0.13944        6.59756        8.56315
C          1.41345        6.52183        9.41272
C          1.25624        7.31841       10.71275
C          2.53797        7.25492       11.55154
C          2.88844        5.80617       11.90863
C          4.15339        5.74089       12.75943
C          4.33149        6.37210        3.78564
C          4.41088        5.68590        2.46855
C          3.85711        6.08835        1.32023
S          4.19027        8.04838        3.85697
H          4.03097       10.55984        8.03657
H          4.14648        8.71226        8.21925
H          4.04236       10.38877        5.65099
H          4.26202        6.74369        7.13504
H          5.33991        4.24468        6.08987
H          4.49014        3.82318        4.53403
H          3.11791        4.46255        7.21009
H          3.37613        2.80737        6.50959
H          2.00286        3.44052        4.52200
H          1.75727        5.09533        5.21025
H          0.88530        2.43560        6.52540
H         -0.19720        3.60470        5.66940
H          1.47978        4.21367        8.18956
H         -0.30044        3.89032        8.15694
H         -0.62866        5.88080        6.66266
H          1.15295        6.19096        6.69022
H         -0.71523        6.19265        9.14919
H         -0.07253        7.65895        8.30671
H          2.26860        6.93186        8.83098
H          1.62610        5.45802        9.65949
H          0.41180        6.89686       11.30157
H          1.02831        8.37935       10.46801
H          2.39406        7.83936       12.48727
H          3.37685        7.70366       10.97471
H          3.05124        5.22060       10.97768
H          2.04936        5.34810       12.47668
H          5.01355        6.17374       12.20536
H          4.38328        4.68257       13.00365
H          4.00978        6.30217       13.70744
H          4.96578        4.75183        2.44170
H          3.26920        6.98266        1.21450
H          3.98802        5.48196        0.42938
53

C          9.17783        4.48330        5.25372
C          8.12342        4.86714        4.52468
C          6.83277        4.14993        4.52217
C          5.68755        4.45600        3.79560
C          4.60229        3.57939        4.03093
C          3.26175        3.71247        3.33334
C          2.06202        3.22736        4.16304
C          1.92030        4.02510        5.46440
C          0.72740        3.50960        6.28060
C          0.55530        4.30440        7.57920
C          0.29661        5.78516        7.27344
C         -0.98328        5.96514        6.45031
C         -1.22382        7.44614        6.13502
C         -0.06629        8.02983        5.31725
C          0.08328        7.29564        3.97972
C         -1.18908        7.42912        3.13561
C         -1.05042        6.68359        1.81154
C          4.92197        2.57077        4.96763
C          4.12240        1.45120        5.53256
C          4.02395        0.21039        5.04475
S          6.52195        2.78986        5.44406
H         10.10148        5.05091        5.20346
H          9.15006        3.60922        5.89381
H          8.22421        5.74491        3.89402
H          5.64416        5.29518        3.11900
H          3.29125        3.12810        2.39047
H          3.09892        4.79044        3.11162
H          2.20508        2.15483        4.41843
H          1.12994        3.34377        3.56549
H          1.76590        5.09974        5.22361
H          2.84989        3.92159        6.06582
H          0.88530        2.43560        6.52540
H         -0.19720        3.60470        5.66940
H          1.47978        4.21367        8.18956
H         -0.30044        3.89032        8.15694
H          1.15971        6.20272        6.70863
H          0.19398        6.34169        8.23151
H         -1.84836        5.56909        7.02705
H         -0.89395        5.39366        5.50022
H         -1.32473        8.01333        7.08683
H         -2.16829        7.54835        5.55593
H          0.87831        7.93186        5.89660
H         -0.25926        9.10852        5.12583
H          0.28498        6.21857        4.17233
H          0.94235        7.72592        3.41875
H         -1.38658        8.50262        2.92428
H         -2.05401        7.01012        3.69498
H         -0.20464        7.09804        1.22237
H         -1.98422        6.79605        1.22170
H         -0.87280        5.60226        1.99470
H          3.54696        1.67058        6.42804
H          4.52626       -0.13080        4.15713
H          3.39296       -0.50992        5.55609
53

C          5.82086       -0.49068       10.86027
C          6.62990        0.16298       10.01837
C          6.14625        1.12977        9.01261
C          4.91852        1.14054        8.36019
C          4.76697        2.19669        7.43111
C          3.50332        2.41366        6.62023
C          3.21854        3.88242        6.26705
C          1.92030        4.02510        5.46440
C          0.72740        3.50960        6.28060
C          0.55530        4.30440        7.57920
C         -0.63021        3.76303        8.38824
C         -1.93305        3.84860        7.58616
C         -3.11442        3.32168        8.40917
C         -2.89067        1.86247        8.82143
C         -2.71826        0.96632        7.58951
C         -2.51046       -0.49578        7.99974
C         -2.31972       -1.38759        6.77643
C          5.91285        3.02108        7.36584
C          6.22619        4.22233        6.54687
C          6.80897        4.24271        5.34386
S          7.04441        2.42882        8.46299
H          6.24057       -1.19540       11.57094
H          4.74618       -0.35094       10.85403
H          7.69606       -0.03473       10.06934
H          4.15956        0.39838        8.55279
H          2.63932        2.02065        7.19503
H          3.61294        1.85658        5.66351
H          4.05831        4.28012        5.65661
H          3.12979        4.47603        7.20467
H          2.00286        3.44052        4.52200
H          1.75727        5.09533        5.21025
H          0.88530        2.43560        6.52540
H         -0.19720        3.60470        5.66940
H          0.37212        5.37278        7.33334
H          1.48413        4.22819        8.18665
H         -0.73643        4.35044        9.32739
H         -0.43497        2.69986        8.65224
H         -1.83325        3.24093        6.65955
H         -2.12214        4.90725        7.30202
H         -4.04564        3.39470        7.80474
H         -3.23124        3.94569        9.32283
H         -3.76514        1.50968        9.41162
H         -1.97941        1.79578        9.45594
H         -1.83778        1.31220        7.00385
H         -3.62565        1.04243        6.95023
H         -3.39515       -0.85331        8.57032
H         -1.61051       -0.57754        8.64779
H         -3.21588       -1.34069        6.12152
H         -2.17098       -2.43858        7.10177
H         -1.42767       -1.06389        6.19865
H          5.96642        5.18482        6.97962
H          7.13092        3.36384        4.81421
H          6.98766        5.19758        4.85936
53

C          5.75343        2.57939       11.78682
C          6.41659        1.92927       10.82341
C          6.05053        2.00040        9.39473
C          4.78869        2.19898        8.84572
C          4.76697        2.19669        7.43111
C          3.50332        2.41366        6.62023
C          3.21854        3.88242        6.26705
C          1.92030        4.02510        5.46440
C          0.72740        3.50960        6.28060
C          0.55530        4.30440        7.57920
C         -0.63021        3.76303        8.38824
C         -0.82668        4.55906        9.68277
C          0.42998        4.49260       10.55857
C          0.77002        3.04346       10.92419
C          2.01681        2.98205       11.81423
C          2.36753        1.53242       12.16749
C          3.59708        1.46890       13.06881
C          6.04973        1.98819        6.87616
C          6.51900        1.89543        5.46794
C          6.61260        0.78766        4.72541
S          7.14806        1.83854        8.14352
H          6.06971        2.47752       12.81999
H          4.89371        3.20446       11.57546
H          7.26105        1.30880       11.10674
H          3.91128        2.33635        9.45826
H          2.63932        2.02065        7.19503
H          3.61294        1.85658        5.66351
H          4.05831        4.28012        5.65661
H          3.12979        4.47603        7.20467
H          2.00286        3.44052        4.52200
H          1.75727        5.09533        5.21025
H          0.88530        2.43560        6.52540
H         -0.19720        3.60470        5.66940
H          0.37212        5.37278        7.33334
H          1.48413        4.22819        8.18665
H         -0.45080        2.69335        8.63708
H         -1.55421        3.83628        7.77262
H         -1.68755        4.13549       10.24609
H         -1.04874        5.61998        9.43302
H          0.26074        5.07715       11.48995
H          1.28543        4.94032       10.00579
H          0.95574        2.46396        9.99296
H         -0.09037        2.58929       11.46355
H          1.82846        3.55299       12.75040
H          2.87391        3.44650       11.27805
H          2.57456        0.96047       11.23686
H          1.51069        1.05875       12.69477
H          4.47468        1.91737       12.55604
H          3.82786        0.40989       13.30917
H          3.40877        2.01653       14.01697
H          6.83188        2.82481        4.99944
H          6.35310       -0.19616        5.07377
H          6.98253        0.86340        3.70763
53

C          3.61327       -2.50191        2.73343
C          3.32157       -1.95106        3.91753
C          3.58020       -0.53361        4.24019
C          3.32879        0.12919        5.43627
C          3.67372        1.50119        5.42034
C          3.50332        2.41366        6.62023
C          3.21854        3.88242        6.26705
C          1.92030        4.02510        5.46440
C          0.72740        3.50960        6.28060
C          0.55530        4.30440        7.57920
C          0.29661        5.78516        7.27344
C          0.13944        6.59756        8.56315
C          1.41345        6.52183        9.41272
C          1.25624        7.31841       10.71275
C          2.53797        7.25492       11.55154
C          2.88844        5.80617       11.90863
C          4.15339        5.74089       12.75943
C          4.20412        1.90561        4.17453
C          4.68775        3.22299        3.68207
C          5.64285        3.43702        2.77144
S          4.24392        0.56000        3.16325
H          3.40503       -3.55342        2.56375
H          4.06578       -1.93478        1.92838
H          2.88173       -2.58030        4.68498
H          2.90277       -0.37168        6.29158
H          4.42931        2.37627        7.23057
H          2.63850        2.03999        7.21196
H          4.05831        4.28012        5.65661
H          3.12979        4.47603        7.20467
H          2.00286        3.44052        4.52200
H          1.75727        5.09533        5.21025
H          0.88530        2.43560        6.52540
H         -0.19720        3.60470        5.66940
H          1.47978        4.21367        8.18956
H         -0.30044        3.89032        8.15694
H         -0.62866        5.88080        6.66266
H          1.15295        6.19096        6.69022
H         -0.71523        6.19265        9.14919
H         -0.07253        7.65895        8.30671
H          2.26860        6.93186        8.83098
H          1.62610        5.45802        9.65949
H          0.41180        6.89686       11.30157
H          1.02831        8.37935       10.46801
H          2.39406        7.83936       12.48727
H          3.37685        7.70366       10.97471
H          3.05124        5.22060       10.97768
H          2.04936        5.34810       12.47668
H          5.01355        6.17374       12.20536
H          4.38328        4.68257       13.00365
H          4.00978        6.30217       13.70744
H          4.22498        4.10342        4.12005
H          6.19071        2.65522        2.27623
H          5.90451        4.45762        2.50997
53

C          0.73738       10.25765        0.46379
C         -0.28285        9.70836        1.13314
C         -0.11673        8.95234        2.39052
C          0.09547        7.58685        2.54386
C          0.19426        7.16495        3.89066
C          0.44356        5.72352        4.29254
C          1.72646        5.50402        5.11051
C          1.92030        4.02510        5.46440
C          0.72740        3.50960        6.28060
C          0.55530        4.30440        7.57920
C          1.81821        4.20227        8.44389
C          1.65557        4.97811        9.75526
C          0.49074        4.41657       10.57895
C          0.73141        2.94700       10.94191
C         -0.44312        2.38386       11.75047
C         -1.74553        2.45114       10.94521
C         -1.64219        1.62877        9.66410
C          0.05179        8.23749        4.79966
C          0.06972        8.28814        6.28594
C          1.13666        8.47785        7.06882
S         -0.16642        9.64990        3.90948
H          0.54740       10.79412       -0.46030
H          1.76247       10.17823        0.80642
H         -1.28362        9.81431        0.72618
H          0.17098        6.91928        1.69973
H          0.50647        5.10349        3.37441
H         -0.41259        5.39244        4.92110
H          1.66200        6.08881        6.05384
H          2.60377        5.85132        4.51967
H          2.85276        3.90695        6.05874
H          2.01184        3.42920        4.53001
H          0.88530        2.43560        6.52540
H         -0.19720        3.60470        5.66940
H         -0.30946        3.89693        8.14629
H          0.35720        5.37199        7.33725
H          2.68677        4.60968        7.88002
H          2.01391        3.13190        8.67660
H          1.45797        6.04860        9.52536
H          2.59564        4.90575       10.34539
H         -0.45007        4.50117        9.99111
H          0.38328        5.01084       11.51335
H          1.66321        2.86560       11.54409
H          0.85445        2.35377       10.00896
H         -0.55980        2.97228       12.68749
H         -0.23106        1.32471       12.01702
H         -1.96510        3.50753       10.67706
H         -2.58477        2.05646       11.55877
H         -0.82305        2.01688        9.02175
H         -2.59722        1.69440        9.10183
H         -1.44334        0.56263        9.90532
H         -0.88332        8.14100        6.78713
H          2.13769        8.61761        6.70138
H          1.00702        8.48307        8.14661
53

C          8.31983        1.35667        2.98881
C          8.08391        2.10394        4.07350
C          6.80274        2.79483        4.32138
C          5.66612        2.79870        3.52064
C          4.60229        3.57939        4.03093
C          3.26175        3.71247        3.33334
C          2.06202        3.22736        4.16304
C          1.92030        4.02510        5.46440
C          0.72740        3.50960        6.28060
C          0.55530        4.30440        7.57920
C          0.29661        5.78516        7.27344
C          0.13944        6.59756        8.56315
C         -0.13602        8.07233        8.24722
C          1.00427        8.68105        7.42350
C          0.73381       10.16016        7.12435
C         -0.57441       10.33159        6.34436
C         -0.83699       11.80114        6.02862
C          4.93148        4.19556        5.25930
C          4.16124        5.10008        6.15400
C          4.27004        5.19637        7.48297
S          6.49890        3.73705        5.66904
H          9.28771        0.88207        2.86306
H          7.57617        1.21267        2.21374
H          8.87827        2.21747        4.80458
H          5.61675        2.25296        2.59132
H          3.29125        3.12810        2.39047
H          3.09892        4.79044        3.11162
H          2.20508        2.15483        4.41843
H          1.12994        3.34377        3.56549
H          1.76590        5.09974        5.22361
H          2.84989        3.92159        6.06582
H          0.88530        2.43560        6.52540
H         -0.19720        3.60470        5.66940
H          1.47978        4.21367        8.18956
H         -0.30044        3.89032        8.15694
H         -0.62866        5.88080        6.66266
H          1.15295        6.19096        6.69022
H          1.07464        6.52036        9.16088
H         -0.70268        6.18274        9.15980
H         -0.24545        8.63830        9.19881
H         -1.08518        8.15238        7.67232
H          1.10169        8.12522        6.46482
H          1.95691        8.58803        7.99030
H          1.57537       10.57379        6.52557
H          0.66600       10.72205        8.08222
H         -1.42234        9.93631        6.94506
H         -0.51736        9.76370        5.39000
H         -0.91992       12.38853        6.96794
H         -1.78817       11.89616        5.46401
H         -0.01255       12.21585        5.41001
H          3.42262        5.73907        5.67727
H          4.94761        4.60951        8.07717
H          3.63496        5.89729        8.01575
53

C         -1.52808       -0.12217        6.42356
C         -0.78788       -0.25966        7.52982
C          0.43420        0.52618        7.79276
C          1.32715        1.05163        6.86559
C          2.41815        1.74386        7.44191
C          3.50332        2.41366        6.62023
C          3.21854        3.88242        6.26705
C          1.92030        4.02510        5.46440
C          0.72740        3.50960        6.28060
C          0.55530        4.30440        7.57920
C         -0.63021        3.76303        8.38824
C         -0.82668        4.55906        9.68277
C         -2.00231        3.99973       10.49249
C         -3.30328        4.05503        9.68396
C         -3.63429        5.49594        9.27820
C         -4.94347        5.55482        8.48334
C         -5.26610        6.98534        8.06176
C          2.36342        1.74902        8.85397
C          3.27134        2.32680        9.88049
C          3.48756        1.85900       11.11406
S          0.97254        0.92519        9.32484
H         -2.41154       -0.73773        6.28788
H         -1.27141        0.58195        5.64070
H         -1.09479       -0.99400        8.26801
H          1.18914        0.92947        5.80260
H          3.63448        1.84800        5.67462
H          4.44347        2.39060        7.21460
H          4.05831        4.28012        5.65661
H          3.12979        4.47603        7.20467
H          2.00286        3.44052        4.52200
H          1.75727        5.09533        5.21025
H          0.88530        2.43560        6.52540
H         -0.19720        3.60470        5.66940
H          0.37212        5.37278        7.33334
H          1.48413        4.22819        8.18665
H         -0.45080        2.69335        8.63708
H         -1.55421        3.83628        7.77262
H         -1.03000        5.62351        9.43087
H          0.10201        4.50604       10.29265
H         -2.12295        4.59452       11.42496
H         -1.78761        2.94327       10.76743
H         -4.13545        3.64736       10.29944
H         -3.19426        3.43067        8.76977
H         -2.80713        5.90118        8.65415
H         -3.73217        6.12168       10.19291
H         -5.77778        5.16773        9.10797
H         -4.85612        4.92288        7.57253
H         -5.38003        7.63453        8.95607
H         -6.21672        6.99882        7.48845
H         -4.45596        7.38950        7.41778
H          3.80333        3.23261        9.60189
H          3.01201        0.98381       11.51964
H          4.17441        2.38836       11.76710
