
  xtb     02032211103D
 xtb: 6.4.1 (23d549d)
 21 21  0     0  0            999 V2000
    2.8741    0.2304   -0.8360 c   0  0  0  0  0  0  0  0  0  0  0  0
    2.4490   -0.3067    0.3013 c   0  0  0  0  0  0  0  0  0  0  0  0
    3.1294   -0.2543    1.5901 c   0  0  0  0  0  0  0  0  0  0  0  0
    2.7028   -1.1078    2.6132 c   0  0  0  0  0  0  0  0  0  0  0  0
    3.3324   -1.1079    3.8380 c   0  0  0  0  0  0  0  0  0  0  0  0
    4.4001   -0.2420    4.0755 c   0  0  0  0  0  0  0  0  0  0  0  0
    5.0216   -0.2694    5.3427 c   0  0  0  0  0  0  0  0  0  0  0  0
    5.5119   -0.3173    6.3790 n   0  0  0  0  0  0  0  0  0  0  0  0
    4.8351    0.6474    3.0737 c   0  0  0  0  0  0  0  0  0  0  0  0
    5.9417    1.5556    3.3562 c   0  0  0  0  0  0  0  0  0  0  0  0
    6.2410    2.6513    2.6693 c   0  0  0  0  0  0  0  0  0  0  0  0
    4.1884    0.6142    1.8442 c   0  0  0  0  0  0  0  0  0  0  0  0
    2.3067    0.1340   -1.7455 h   0  0  0  0  0  0  0  0  0  0  0  0
    3.8008    0.7740   -0.9152 h   0  0  0  0  0  0  0  0  0  0  0  0
    1.5196   -0.8633    0.3054 h   0  0  0  0  0  0  0  0  0  0  0  0
    1.8782   -1.7826    2.4348 h   0  0  0  0  0  0  0  0  0  0  0  0
    3.0081   -1.7748    4.6238 h   0  0  0  0  0  0  0  0  0  0  0  0
    6.5335    1.2960    4.2253 h   0  0  0  0  0  0  0  0  0  0  0  0
    5.6694    2.9817    1.8183 h   0  0  0  0  0  0  0  0  0  0  0  0
    7.0730    3.2738    2.9492 h   0  0  0  0  0  0  0  0  0  0  0  0
    4.5219    1.2800    1.0649 h   0  0  0  0  0  0  0  0  0  0  0  0
  1  2  2  0  0  0  0
  2  3  1  0  0  0  0
  3  4  4  0  0  0  0
  4  5  4  0  0  0  0
  5  6  4  0  0  0  0
  6  7  1  0  0  0  0
  7  8  3  0  0  0  0
  6  9  4  0  0  0  0
  9 10  1  0  0  0  0
 10 11  2  0  0  0  0
  3 12  4  0  0  0  0
  9 12  4  0  0  0  0
  1 13  1  0  0  0  0
  1 14  1  0  0  0  0
  2 15  1  0  0  0  0
  4 16  1  0  0  0  0
  5 17  1  0  0  0  0
 10 18  1  0  0  0  0
 11 19  1  0  0  0  0
 11 20  1  0  0  0  0
 12 21  1  0  0  0  0
M  END
