
 OpenBabel02032210493D

 35 36  0  0  0  0  0  0  0  0999 V2000
    2.9981    1.7955    3.5159 C   0  0  0  0  0  0  0  0  0  0  0  0
    2.8155    0.7629    2.3847 C   0  0  0  0  0  0  0  0  0  0  0  0
    2.0042   -0.4240    2.9272 C   0  0  0  0  0  0  0  0  0  0  0  0
    2.0959    1.3036    1.3243 O   0  0  0  0  0  0  0  0  0  0  0  0
    2.4128    2.3650    0.5337 C   0  0  0  0  0  0  0  0  0  0  0  0
    1.6086    2.6987   -0.5366 N   0  0  0  0  0  0  0  0  0  0  0  0
    1.8409    3.7322   -1.3875 C   0  0  0  0  0  0  0  0  0  0  0  0
    0.8557    3.7923   -2.3611 C   0  0  0  0  0  0  0  0  0  0  0  0
    0.4685    2.1032   -0.9727 C   0  0  0  0  0  0  0  0  0  0  0  0
   -0.0027    2.7540   -2.0844 C   0  0  0  0  0  0  0  0  0  0  0  0
   -1.1571    2.3544   -2.7507 C   0  0  0  0  0  0  0  0  0  0  0  0
   -1.8717    1.2359   -2.2657 C   0  0  0  0  0  0  0  0  0  0  0  0
   -3.1014    0.8336   -3.0136 C   0  0  0  0  0  0  0  0  0  0  0  0
   -3.9199   -0.1984   -2.7434 C   0  0  0  0  0  0  0  0  0  0  0  0
   -3.7286   -1.0508   -1.7070 F   0  0  0  0  0  0  0  0  0  0  0  0
   -4.9958   -0.4087   -3.5464 F   0  0  0  0  0  0  0  0  0  0  0  0
   -1.3841    0.5635   -1.1094 C   0  0  0  0  0  0  0  0  0  0  0  0
   -0.2138    0.9930   -0.4584 C   0  0  0  0  0  0  0  0  0  0  0  0
    3.4188    3.0234    0.7595 O   0  0  0  0  0  0  0  0  0  0  0  0
    4.1848    0.2481    1.8983 C   0  0  0  0  0  0  0  0  0  0  0  0
    2.0099    2.1651    3.8642 H   0  0  0  0  0  0  0  0  0  0  0  0
    3.5988    2.6661    3.1845 H   0  0  0  0  0  0  0  0  0  0  0  0
    3.5263    1.3352    4.3790 H   0  0  0  0  0  0  0  0  0  0  0  0
    1.0063   -0.0821    3.2778 H   0  0  0  0  0  0  0  0  0  0  0  0
    2.5299   -0.9098    3.7777 H   0  0  0  0  0  0  0  0  0  0  0  0
    1.8472   -1.1823    2.1296 H   0  0  0  0  0  0  0  0  0  0  0  0
    2.6811    4.4115   -1.3165 H   0  0  0  0  0  0  0  0  0  0  0  0
    0.7818    4.5064   -3.1706 H   0  0  0  0  0  0  0  0  0  0  0  0
   -1.4892    2.8980   -3.6273 H   0  0  0  0  0  0  0  0  0  0  0  0
   -3.3672    1.4383   -3.8771 H   0  0  0  0  0  0  0  0  0  0  0  0
   -1.8821   -0.2918   -0.6892 H   0  0  0  0  0  0  0  0  0  0  0  0
    0.1199    0.4535    0.4127 H   0  0  0  0  0  0  0  0  0  0  0  0
    4.7390   -0.2353    2.7315 H   0  0  0  0  0  0  0  0  0  0  0  0
    4.8129    1.0746    1.5079 H   0  0  0  0  0  0  0  0  0  0  0  0
    4.0480   -0.4977    1.0858 H   0  0  0  0  0  0  0  0  0  0  0  0
  1  2  1  0  0  0  0
  1 21  1  0  0  0  0
  1 22  1  0  0  0  0
  1 23  1  0  0  0  0
  2  3  1  0  0  0  0
  2  4  1  0  0  0  0
  2 20  1  0  0  0  0
  3 24  1  0  0  0  0
  3 25  1  0  0  0  0
  3 26  1  0  0  0  0
  4  5  1  0  0  0  0
  5  6  1  0  0  0  0
  5 19  2  0  0  0  0
  6  7  1  0  0  0  0
  6  9  1  0  0  0  0
  7  8  2  0  0  0  0
  7 27  1  0  0  0  0
  8 10  1  0  0  0  0
  8 28  1  0  0  0  0
  9 10  1  0  0  0  0
  9 18  2  0  0  0  0
 10 11  2  0  0  0  0
 11 12  1  0  0  0  0
 11 29  1  0  0  0  0
 12 13  1  0  0  0  0
 12 17  2  0  0  0  0
 13 14  2  0  0  0  0
 13 30  1  0  0  0  0
 14 15  1  0  0  0  0
 14 16  1  0  0  0  0
 17 18  1  0  0  0  0
 17 31  1  0  0  0  0
 18 32  1  0  0  0  0
 20 33  1  0  0  0  0
 20 34  1  0  0  0  0
 20 35  1  0  0  0  0
M  END
