
 OpenBabel02032210393D

 48 51  0  0  0  0  0  0  0  0999 V2000
    0.8371    1.0010    1.8917 F   0  0  0  0  0  0  0  0  0  0  0  0
    2.1648    1.2187    1.9910 C   0  0  0  0  0  0  0  0  0  0  0  0
    2.6233    2.1328    2.8689 F   0  0  0  0  0  0  0  0  0  0  0  0
    3.0006    0.5285    1.1969 C   0  0  0  0  0  0  0  0  0  0  0  0
    4.4609    0.6517    1.1874 C   0  0  0  0  0  0  0  0  0  0  0  0
    5.1916    0.9468    2.3385 C   0  0  0  0  0  0  0  0  0  0  0  0
    6.5850    1.0619    2.2937 C   0  0  0  0  0  0  0  0  0  0  0  0
    7.3111    0.8012    1.1167 C   0  0  0  0  0  0  0  0  0  0  0  0
    8.7637    0.8469    1.1028 N   0  0  0  0  0  0  0  0  0  0  0  0
    9.5064    0.4978    2.2990 C   0  0  0  0  0  0  0  0  0  0  0  0
    9.0531   -0.5023    3.1697 C   0  0  0  0  0  0  0  0  0  0  0  0
    9.7648   -0.8357    4.3235 C   0  0  0  0  0  0  0  0  0  0  0  0
   11.0021   -0.2443    4.6245 C   0  0  0  0  0  0  0  0  0  0  0  0
   11.7597   -0.6473    5.8308 C   0  0  0  0  0  0  0  0  0  0  0  0
   11.6610   -1.9542    6.3463 C   0  0  0  0  0  0  0  0  0  0  0  0
   12.3112   -2.3281    7.5240 C   0  0  0  0  0  0  0  0  0  0  0  0
   13.1014   -1.4073    8.2000 C   0  0  0  0  0  0  0  0  0  0  0  0
   13.2462   -0.1179    7.6966 C   0  0  0  0  0  0  0  0  0  0  0  0
   12.5787    0.2591    6.5273 C   0  0  0  0  0  0  0  0  0  0  0  0
   11.4689    0.7392    3.7401 C   0  0  0  0  0  0  0  0  0  0  0  0
   10.7191    1.1289    2.6224 C   0  0  0  0  0  0  0  0  0  0  0  0
    9.4916    1.1733   -0.1104 C   0  0  0  0  0  0  0  0  0  0  0  0
    8.9913    2.0967   -1.0451 C   0  0  0  0  0  0  0  0  0  0  0  0
    9.6924    2.3927   -2.2185 C   0  0  0  0  0  0  0  0  0  0  0  0
   10.9352    1.8131   -2.4566 C   0  0  0  0  0  0  0  0  0  0  0  0
   11.4680    0.9182   -1.5360 C   0  0  0  0  0  0  0  0  0  0  0  0
   10.7412    0.5827   -0.3917 C   0  0  0  0  0  0  0  0  0  0  0  0
    6.5650    0.4611   -0.0250 C   0  0  0  0  0  0  0  0  0  0  0  0
    5.1630    0.4077    0.0024 C   0  0  0  0  0  0  0  0  0  0  0  0
    2.5645   -0.1759    0.4976 H   0  0  0  0  0  0  0  0  0  0  0  0
    4.6965    1.0913    3.2971 H   0  0  0  0  0  0  0  0  0  0  0  0
    7.0972    1.3455    3.2104 H   0  0  0  0  0  0  0  0  0  0  0  0
    8.1322   -1.0425    2.9652 H   0  0  0  0  0  0  0  0  0  0  0  0
    9.3245   -1.5743    4.9892 H   0  0  0  0  0  0  0  0  0  0  0  0
   11.0688   -2.7085    5.8326 H   0  0  0  0  0  0  0  0  0  0  0  0
   12.1905   -3.3372    7.9090 H   0  0  0  0  0  0  0  0  0  0  0  0
   13.6040   -1.6933    9.1185 H   0  0  0  0  0  0  0  0  0  0  0  0
   13.8669    0.6040    8.2208 H   0  0  0  0  0  0  0  0  0  0  0  0
   12.6935    1.2833    6.1808 H   0  0  0  0  0  0  0  0  0  0  0  0
   12.4323    1.2194    3.8976 H   0  0  0  0  0  0  0  0  0  0  0  0
   11.1088    1.9267    1.9933 H   0  0  0  0  0  0  0  0  0  0  0  0
    8.0463    2.6036   -0.8679 H   0  0  0  0  0  0  0  0  0  0  0  0
    9.2680    3.0850   -2.9406 H   0  0  0  0  0  0  0  0  0  0  0  0
   11.4895    2.0602   -3.3580 H   0  0  0  0  0  0  0  0  0  0  0  0
   12.4453    0.4736   -1.7041 H   0  0  0  0  0  0  0  0  0  0  0  0
   11.1711   -0.1512    0.2867 H   0  0  0  0  0  0  0  0  0  0  0  0
    7.0658    0.2181   -0.9598 H   0  0  0  0  0  0  0  0  0  0  0  0
    4.6354    0.1682   -0.9177 H   0  0  0  0  0  0  0  0  0  0  0  0
  1  2  1  0  0  0  0
  2  3  1  0  0  0  0
  2  4  2  0  0  0  0
  4  5  1  0  0  0  0
  4 30  1  0  0  0  0
  5  6  1  0  0  0  0
  5 29  2  0  0  0  0
  6  7  2  0  0  0  0
  6 31  1  0  0  0  0
  7  8  1  0  0  0  0
  7 32  1  0  0  0  0
  8  9  1  0  0  0  0
  8 28  2  0  0  0  0
  9 10  1  0  0  0  0
  9 22  1  0  0  0  0
 10 11  1  0  0  0  0
 10 21  2  0  0  0  0
 11 12  2  0  0  0  0
 11 33  1  0  0  0  0
 12 13  1  0  0  0  0
 12 34  1  0  0  0  0
 13 14  1  0  0  0  0
 13 20  2  0  0  0  0
 14 15  1  0  0  0  0
 14 19  2  0  0  0  0
 15 16  2  0  0  0  0
 15 35  1  0  0  0  0
 16 17  1  0  0  0  0
 16 36  1  0  0  0  0
 17 18  2  0  0  0  0
 17 37  1  0  0  0  0
 18 19  1  0  0  0  0
 18 38  1  0  0  0  0
 19 39  1  0  0  0  0
 20 21  1  0  0  0  0
 20 40  1  0  0  0  0
 21 41  1  0  0  0  0
 22 23  1  0  0  0  0
 22 27  2  0  0  0  0
 23 24  2  0  0  0  0
 23 42  1  0  0  0  0
 24 25  1  0  0  0  0
 24 43  1  0  0  0  0
 25 26  2  0  0  0  0
 25 44  1  0  0  0  0
 26 27  1  0  0  0  0
 26 45  1  0  0  0  0
 27 46  1  0  0  0  0
 28 29  1  0  0  0  0
 28 47  1  0  0  0  0
 29 48  1  0  0  0  0
M  END
