
 OpenBabel02012213413D

 36 39  0  0  0  0  0  0  0  0999 V2000
    2.3812   -0.2543   -0.1214 C   0  0  0  0  0  0  0  0  0  0  0  0
    0.8820   -0.2034   -0.1089 C   0  0  0  0  0  0  0  0  0  0  0  0
    0.1231   -1.3665    0.0871 C   0  0  0  0  0  0  0  0  0  0  0  0
   -1.2735   -1.3038    0.0979 C   0  0  0  0  0  0  0  0  0  0  0  0
   -1.9392   -0.0774   -0.0884 C   0  0  0  0  0  0  0  0  0  0  0  0
   -3.3757   -0.0074   -0.0775 N   0  0  0  0  0  0  0  0  0  0  0  0
   -4.1412   -0.5320    1.0325 C   0  0  0  0  0  0  0  0  0  0  0  0
   -5.5500   -0.4140    1.0064 C   0  0  0  0  0  0  0  0  0  0  0  0
   -6.1688    0.1814   -0.0360 O   0  0  0  0  0  0  0  0  0  0  0  0
   -5.5071    0.6849   -1.0999 C   0  0  0  0  0  0  0  0  0  0  0  0
   -4.0975    0.6092   -1.1683 C   0  0  0  0  0  0  0  0  0  0  0  0
   -3.4616    1.1033   -2.3338 C   0  0  0  0  0  0  0  0  0  0  0  0
   -4.2077    1.6804   -3.3651 C   0  0  0  0  0  0  0  0  0  0  0  0
   -5.5948    1.7680   -3.2649 C   0  0  0  0  0  0  0  0  0  0  0  0
   -6.2432    1.2666   -2.1378 C   0  0  0  0  0  0  0  0  0  0  0  0
   -6.3279   -0.8956    2.0646 C   0  0  0  0  0  0  0  0  0  0  0  0
   -5.7219   -1.4897    3.1698 C   0  0  0  0  0  0  0  0  0  0  0  0
   -4.3338   -1.5956    3.2275 C   0  0  0  0  0  0  0  0  0  0  0  0
   -3.5456   -1.1181    2.1766 C   0  0  0  0  0  0  0  0  0  0  0  0
   -1.1680    1.0836   -0.2858 C   0  0  0  0  0  0  0  0  0  0  0  0
    0.2276    1.0209   -0.2952 C   0  0  0  0  0  0  0  0  0  0  0  0
    2.7556   -1.2877    0.0386 H   0  0  0  0  0  0  0  0  0  0  0  0
    2.7829    0.3941    0.6855 H   0  0  0  0  0  0  0  0  0  0  0  0
    2.7584    0.1088   -1.1006 H   0  0  0  0  0  0  0  0  0  0  0  0
    0.6100   -2.3232    0.2301 H   0  0  0  0  0  0  0  0  0  0  0  0
   -1.8384   -2.2164    0.2403 H   0  0  0  0  0  0  0  0  0  0  0  0
   -2.3947    1.0453   -2.4762 H   0  0  0  0  0  0  0  0  0  0  0  0
   -3.7073    2.0567   -4.2481 H   0  0  0  0  0  0  0  0  0  0  0  0
   -6.1687    2.2142   -4.0667 H   0  0  0  0  0  0  0  0  0  0  0  0
   -7.3225    1.3231   -2.0719 H   0  0  0  0  0  0  0  0  0  0  0  0
   -7.4062   -0.8019    2.0317 H   0  0  0  0  0  0  0  0  0  0  0  0
   -6.3279   -1.8580    3.9874 H   0  0  0  0  0  0  0  0  0  0  0  0
   -3.8645   -2.0448    4.0934 H   0  0  0  0  0  0  0  0  0  0  0  0
   -2.4782   -1.2099    2.2890 H   0  0  0  0  0  0  0  0  0  0  0  0
   -1.6503    2.0434   -0.4214 H   0  0  0  0  0  0  0  0  0  0  0  0
    0.7991    1.9286   -0.4457 H   0  0  0  0  0  0  0  0  0  0  0  0
  1  2  1  0  0  0  0
  1 22  1  0  0  0  0
  1 23  1  0  0  0  0
  1 24  1  0  0  0  0
  2  3  1  0  0  0  0
  2 21  2  0  0  0  0
  3  4  2  0  0  0  0
  3 25  1  0  0  0  0
  4  5  1  0  0  0  0
  4 26  1  0  0  0  0
  5  6  1  0  0  0  0
  5 20  2  0  0  0  0
  6  7  1  0  0  0  0
  6 11  1  0  0  0  0
  7  8  1  0  0  0  0
  7 19  2  0  0  0  0
  8  9  1  0  0  0  0
  8 16  2  0  0  0  0
  9 10  1  0  0  0  0
 10 11  1  0  0  0  0
 10 15  2  0  0  0  0
 11 12  2  0  0  0  0
 12 13  1  0  0  0  0
 12 27  1  0  0  0  0
 13 14  2  0  0  0  0
 13 28  1  0  0  0  0
 14 15  1  0  0  0  0
 14 29  1  0  0  0  0
 15 30  1  0  0  0  0
 16 17  1  0  0  0  0
 16 31  1  0  0  0  0
 17 18  2  0  0  0  0
 17 32  1  0  0  0  0
 18 19  1  0  0  0  0
 18 33  1  0  0  0  0
 19 34  1  0  0  0  0
 20 21  1  0  0  0  0
 20 35  1  0  0  0  0
 21 36  1  0  0  0  0
M  END
