
 OpenBabel02032210513D

 20 20  0  0  0  0  0  0  0  0999 V2000
    2.6137   -0.2957    1.3696 C   0  0  0  0  0  0  0  0  0  0  0  0
    2.3719   -0.0015    0.0867 C   0  0  0  0  0  0  0  0  0  0  0  0
    3.2195    0.9300   -0.6692 C   0  0  0  0  0  0  0  0  0  0  0  0
    2.8469    2.2876   -0.6482 C   0  0  0  0  0  0  0  0  0  0  0  0
    3.5906    3.2424   -1.3359 C   0  0  0  0  0  0  0  0  0  0  0  0
    4.7134    2.8473   -2.0557 C   0  0  0  0  0  0  0  0  0  0  0  0
    5.0838    1.5028   -2.0839 C   0  0  0  0  0  0  0  0  0  0  0  0
    6.1411    1.1754   -2.8421 F   0  0  0  0  0  0  0  0  0  0  0  0
    4.3646    0.5170   -1.3889 C   0  0  0  0  0  0  0  0  0  0  0  0
    4.7210   -0.9172   -1.4698 C   0  0  0  0  0  0  0  0  0  0  0  0
    5.9400   -1.4527   -1.5621 C   0  0  0  0  0  0  0  0  0  0  0  0
    7.0570   -0.6971   -1.5715 F   0  0  0  0  0  0  0  0  0  0  0  0
    6.0531   -2.7979   -1.6140 F   0  0  0  0  0  0  0  0  0  0  0  0
    1.9716   -0.9846    1.9092 H   0  0  0  0  0  0  0  0  0  0  0  0
    3.4508    0.1365    1.9110 H   0  0  0  0  0  0  0  0  0  0  0  0
    1.5301   -0.4370   -0.4440 H   0  0  0  0  0  0  0  0  0  0  0  0
    1.9647    2.6026   -0.0924 H   0  0  0  0  0  0  0  0  0  0  0  0
    3.2915    4.2878   -1.3168 H   0  0  0  0  0  0  0  0  0  0  0  0
    5.3003    3.5744   -2.6079 H   0  0  0  0  0  0  0  0  0  0  0  0
    3.8869   -1.6093   -1.4303 H   0  0  0  0  0  0  0  0  0  0  0  0
  1  2  2  0  0  0  0
  1 14  1  0  0  0  0
  1 15  1  0  0  0  0
  2  3  1  0  0  0  0
  2 16  1  0  0  0  0
  3  4  1  0  0  0  0
  3  9  2  0  0  0  0
  4  5  2  0  0  0  0
  4 17  1  0  0  0  0
  5  6  1  0  0  0  0
  5 18  1  0  0  0  0
  6  7  2  0  0  0  0
  6 19  1  0  0  0  0
  7  8  1  0  0  0  0
  7  9  1  0  0  0  0
  9 10  1  0  0  0  0
 10 11  2  0  0  0  0
 10 20  1  0  0  0  0
 11 12  1  0  0  0  0
 11 13  1  0  0  0  0
M  END
