
  xtb     02032211353D
 xtb: 6.4.1 (23d549d)
 28 29  0     0  0            999 V2000
    5.2864   -0.9335    0.0116 C   0  0  0  0  0  0  0  0  0  0  0  0
    3.9738   -1.1270    0.0116 C   0  0  0  0  0  0  0  0  0  0  0  0
    2.9410   -0.0951    0.0030 C   0  0  0  0  0  0  0  0  0  0  0  0
    3.2114    1.2767   -0.0020 C   0  0  0  0  0  0  0  0  0  0  0  0
    2.1508    2.1653   -0.0095 C   0  0  0  0  0  0  0  0  0  0  0  0
    0.8579    1.6734   -0.0112 C   0  0  0  0  0  0  0  0  0  0  0  0
    0.6761    0.2893   -0.0055 C   0  0  0  0  0  0  0  0  0  0  0  0
   -0.6761   -0.2893   -0.0055 C   0  0  0  0  0  0  0  0  0  0  0  0
   -0.8580   -1.6735   -0.0111 C   0  0  0  0  0  0  0  0  0  0  0  0
   -2.1509   -2.1653   -0.0095 C   0  0  0  0  0  0  0  0  0  0  0  0
   -3.2115   -1.2767   -0.0022 C   0  0  0  0  0  0  0  0  0  0  0  0
   -2.9410    0.0951    0.0028 C   0  0  0  0  0  0  0  0  0  0  0  0
   -3.9738    1.1271    0.0112 C   0  0  0  0  0  0  0  0  0  0  0  0
   -5.2863    0.9336    0.0121 C   0  0  0  0  0  0  0  0  0  0  0  0
   -1.6948    0.5613    0.0009 N   0  0  0  0  0  0  0  0  0  0  0  0
    1.6949   -0.5613    0.0011 N   0  0  0  0  0  0  0  0  0  0  0  0
    5.9733   -1.7624    0.0185 H   0  0  0  0  0  0  0  0  0  0  0  0
    5.7335    0.0462    0.0045 H   0  0  0  0  0  0  0  0  0  0  0  0
    3.5718   -2.1312    0.0184 H   0  0  0  0  0  0  0  0  0  0  0  0
    4.2275    1.6372    0.0002 H   0  0  0  0  0  0  0  0  0  0  0  0
    2.3321    3.2311   -0.0136 H   0  0  0  0  0  0  0  0  0  0  0  0
   -0.0052    2.3179   -0.0166 H   0  0  0  0  0  0  0  0  0  0  0  0
    0.0051   -2.3180   -0.0164 H   0  0  0  0  0  0  0  0  0  0  0  0
   -2.3322   -3.2311   -0.0136 H   0  0  0  0  0  0  0  0  0  0  0  0
   -4.2275   -1.6372   -0.0000 H   0  0  0  0  0  0  0  0  0  0  0  0
   -3.5717    2.1313    0.0172 H   0  0  0  0  0  0  0  0  0  0  0  0
   -5.7335   -0.0461    0.0061 H   0  0  0  0  0  0  0  0  0  0  0  0
   -5.9732    1.7626    0.0188 H   0  0  0  0  0  0  0  0  0  0  0  0
  1  2  2  0  0  0  0
  2  3  1  0  0  0  0
  3  4  4  0  0  0  0
  4  5  4  0  0  0  0
  5  6  4  0  0  0  0
  6  7  4  0  0  0  0
  7  8  1  0  0  0  0
  8  9  4  0  0  0  0
  9 10  4  0  0  0  0
 10 11  4  0  0  0  0
 11 12  4  0  0  0  0
 12 13  1  0  0  0  0
 13 14  2  0  0  0  0
  8 15  4  0  0  0  0
 12 15  4  0  0  0  0
  3 16  4  0  0  0  0
  7 16  4  0  0  0  0
  1 17  1  0  0  0  0
  1 18  1  0  0  0  0
  2 19  1  0  0  0  0
  4 20  1  0  0  0  0
  5 21  1  0  0  0  0
  6 22  1  0  0  0  0
  9 23  1  0  0  0  0
 10 24  1  0  0  0  0
 11 25  1  0  0  0  0
 13 26  1  0  0  0  0
 14 27  1  0  0  0  0
 14 28  1  0  0  0  0
M  END
