
  xtb     02032211343D
 xtb: 6.4.1 (23d549d)
 30 31  0     0  0            999 V2000
    3.9753    0.7089    0.7830 C   0  0  0  0  0  0  0  0  0  0  0  0
    3.1123    1.1297   -0.3032 N   0  0  0  0  0  0  0  0  0  0  0  0
    1.7353    1.0159   -0.1125 C   0  0  0  0  0  0  0  0  0  0  0  0
    0.8915    2.1083   -0.1300 C   0  0  0  0  0  0  0  0  0  0  0  0
   -0.4794    1.9619    0.0687 C   0  0  0  0  0  0  0  0  0  0  0  0
   -1.0519    0.7299    0.2928 C   0  0  0  0  0  0  0  0  0  0  0  0
   -2.5057    0.6762    0.4619 C   0  0  0  0  0  0  0  0  0  0  0  0
   -3.3352   -0.1331   -0.1732 C   0  0  0  0  0  0  0  0  0  0  0  0
   -3.0246   -1.0652   -1.0682 F   0  0  0  0  0  0  0  0  0  0  0  0
   -4.6607   -0.1120   -0.0112 F   0  0  0  0  0  0  0  0  0  0  0  0
    1.1694   -0.2852    0.0600 C   0  0  0  0  0  0  0  0  0  0  0  0
   -0.2206   -0.4235    0.3242 C   0  0  0  0  0  0  0  0  0  0  0  0
   -0.7190   -1.7076    0.6309 C   0  0  0  0  0  0  0  0  0  0  0  0
    0.0791   -2.8147    0.5634 C   0  0  0  0  0  0  0  0  0  0  0  0
    1.4139   -2.6927    0.1582 C   0  0  0  0  0  0  0  0  0  0  0  0
    1.9470   -1.4551   -0.0724 C   0  0  0  0  0  0  0  0  0  0  0  0
    3.6110    2.3128   -0.9629 C   0  0  0  0  0  0  0  0  0  0  0  0
    3.4862   -0.0484    1.3890 H   0  0  0  0  0  0  0  0  0  0  0  0
    4.2277    1.5580    1.4332 H   0  0  0  0  0  0  0  0  0  0  0  0
    4.9046    0.3011    0.3789 H   0  0  0  0  0  0  0  0  0  0  0  0
    1.2848    3.1020   -0.2755 H   0  0  0  0  0  0  0  0  0  0  0  0
   -1.1067    2.8418    0.0459 H   0  0  0  0  0  0  0  0  0  0  0  0
   -2.9608    1.4187    1.1018 H   0  0  0  0  0  0  0  0  0  0  0  0
   -1.7486   -1.8129    0.9349 H   0  0  0  0  0  0  0  0  0  0  0  0
   -0.3220   -3.7888    0.8009 H   0  0  0  0  0  0  0  0  0  0  0  0
    2.0206   -3.5782    0.0389 H   0  0  0  0  0  0  0  0  0  0  0  0
    2.9724   -1.3625   -0.3929 H   0  0  0  0  0  0  0  0  0  0  0  0
    4.6243    2.1044   -1.3100 H   0  0  0  0  0  0  0  0  0  0  0  0
    3.6522    3.1926   -0.3052 H   0  0  0  0  0  0  0  0  0  0  0  0
    2.9888    2.5389   -1.8265 H   0  0  0  0  0  0  0  0  0  0  0  0
  1  2  1  0  0  0  0
  2  3  1  0  0  0  0
  3  4  4  0  0  0  0
  4  5  4  0  0  0  0
  5  6  4  0  0  0  0
  6  7  1  0  0  0  0
  7  8  2  0  0  0  0
  8  9  1  0  0  0  0
  8 10  1  0  0  0  0
  3 11  4  0  0  0  0
  6 12  4  0  0  0  0
 11 12  4  0  0  0  0
 12 13  4  0  0  0  0
 13 14  2  0  0  0  0
 14 15  4  0  0  0  0
 11 16  4  0  0  0  0
 15 16  2  0  0  0  0
  2 17  1  0  0  0  0
  1 18  1  0  0  0  0
  1 19  1  0  0  0  0
  1 20  1  0  0  0  0
  4 21  1  0  0  0  0
  5 22  1  0  0  0  0
  7 23  1  0  0  0  0
 13 24  1  0  0  0  0
 14 25  1  0  0  0  0
 15 26  1  0  0  0  0
 16 27  1  0  0  0  0
 17 28  1  0  0  0  0
 17 29  1  0  0  0  0
 17 30  1  0  0  0  0
M  END
