
  xtb     02032211353D
 xtb: 6.4.1 (23d549d)
 47 47  0     0  0            999 V2000
    0.1293   -3.7071    1.1818 C   0  0  0  0  0  0  0  0  0  0  0  0
    0.0799   -2.4429    1.5929 C   0  0  0  0  0  0  0  0  0  0  0  0
    0.8833   -1.3725    1.0719 C   0  0  0  0  0  0  0  0  0  0  0  0
    0.8459   -0.0558    1.4530 C   0  0  0  0  0  0  0  0  0  0  0  0
    1.7391    0.7765    0.7534 C   0  0  0  0  0  0  0  0  0  0  0  0
    1.7927    2.2590    0.9595 C   0  0  0  0  0  0  0  0  0  0  0  0
    1.1225    3.0225   -0.1949 C   0  0  0  0  0  0  0  0  0  0  0  0
   -0.2891    2.5310   -0.5152 C   0  0  0  0  0  0  0  0  0  0  0  0
   -1.3228    2.8676    0.5588 C   0  0  0  0  0  0  0  0  0  0  0  0
   -2.6540    2.1533    0.3107 C   0  0  0  0  0  0  0  0  0  0  0  0
   -2.6163    0.6955    0.7676 C   0  0  0  0  0  0  0  0  0  0  0  0
   -3.8584   -0.1059    0.3786 C   0  0  0  0  0  0  0  0  0  0  0  0
   -4.0470   -0.3126   -1.1266 C   0  0  0  0  0  0  0  0  0  0  0  0
   -2.8632   -0.9627   -1.8453 C   0  0  0  0  0  0  0  0  0  0  0  0
   -2.5104   -2.3431   -1.3045 C   0  0  0  0  0  0  0  0  0  0  0  0
    2.4858    0.0793   -0.1732 C   0  0  0  0  0  0  0  0  0  0  0  0
    3.5102    0.5891   -1.0414 C   0  0  0  0  0  0  0  0  0  0  0  0
    4.1361   -0.1162   -1.9803 C   0  0  0  0  0  0  0  0  0  0  0  0
    2.0605   -1.6105   -0.1830 S   0  0  0  0  0  0  0  0  0  0  0  0
   -0.5020   -4.4665    1.6077 H   0  0  0  0  0  0  0  0  0  0  0  0
    0.8049   -4.0160    0.4014 H   0  0  0  0  0  0  0  0  0  0  0  0
   -0.6075   -2.1474    2.3764 H   0  0  0  0  0  0  0  0  0  0  0  0
    0.1872    0.3042    2.2242 H   0  0  0  0  0  0  0  0  0  0  0  0
    2.8303    2.5916    1.0439 H   0  0  0  0  0  0  0  0  0  0  0  0
    1.2920    2.4998    1.8983 H   0  0  0  0  0  0  0  0  0  0  0  0
    1.7342    2.9069   -1.0924 H   0  0  0  0  0  0  0  0  0  0  0  0
    1.0934    4.0854    0.0562 H   0  0  0  0  0  0  0  0  0  0  0  0
   -0.2539    1.4512   -0.6677 H   0  0  0  0  0  0  0  0  0  0  0  0
   -0.6092    2.9817   -1.4581 H   0  0  0  0  0  0  0  0  0  0  0  0
   -1.4818    3.9487    0.5666 H   0  0  0  0  0  0  0  0  0  0  0  0
   -0.9487    2.5840    1.5435 H   0  0  0  0  0  0  0  0  0  0  0  0
   -2.8860    2.2056   -0.7540 H   0  0  0  0  0  0  0  0  0  0  0  0
   -3.4530    2.6693    0.8487 H   0  0  0  0  0  0  0  0  0  0  0  0
   -2.5260    0.6774    1.8576 H   0  0  0  0  0  0  0  0  0  0  0  0
   -1.7321    0.2036    0.3633 H   0  0  0  0  0  0  0  0  0  0  0  0
   -4.7453    0.4022    0.7670 H   0  0  0  0  0  0  0  0  0  0  0  0
   -3.8049   -1.0822    0.8648 H   0  0  0  0  0  0  0  0  0  0  0  0
   -4.2549    0.6488   -1.6011 H   0  0  0  0  0  0  0  0  0  0  0  0
   -4.9305   -0.9403   -1.2711 H   0  0  0  0  0  0  0  0  0  0  0  0
   -1.9885   -0.3133   -1.7818 H   0  0  0  0  0  0  0  0  0  0  0  0
   -3.1203   -1.0528   -2.9040 H   0  0  0  0  0  0  0  0  0  0  0  0
   -2.1420   -2.2838   -0.2836 H   0  0  0  0  0  0  0  0  0  0  0  0
   -1.7324   -2.7985   -1.9135 H   0  0  0  0  0  0  0  0  0  0  0  0
   -3.3831   -2.9928   -1.3207 H   0  0  0  0  0  0  0  0  0  0  0  0
    3.7698    1.6280   -0.8848 H   0  0  0  0  0  0  0  0  0  0  0  0
    3.8952   -1.1508   -2.1606 H   0  0  0  0  0  0  0  0  0  0  0  0
    4.9037    0.3179   -2.5960 H   0  0  0  0  0  0  0  0  0  0  0  0
  1  2  2  0  0  0  0
  2  3  1  0  0  0  0
  3  4  2  0  0  0  0
  4  5  4  0  0  0  0
  5  6  1  0  0  0  0
  6  7  1  0  0  0  0
  7  8  1  0  0  0  0
  8  9  1  0  0  0  0
  9 10  1  0  0  0  0
 10 11  1  0  0  0  0
 11 12  1  0  0  0  0
 12 13  1  0  0  0  0
 13 14  1  0  0  0  0
 14 15  1  0  0  0  0
  5 16  4  0  0  0  0
 16 17  1  0  0  0  0
 17 18  2  0  0  0  0
  3 19  1  0  0  0  0
 16 19  1  0  0  0  0
  1 20  1  0  0  0  0
  1 21  1  0  0  0  0
  2 22  1  0  0  0  0
  4 23  1  0  0  0  0
  6 24  1  0  0  0  0
  6 25  1  0  0  0  0
  7 26  1  0  0  0  0
  7 27  1  0  0  0  0
  8 28  1  0  0  0  0
  8 29  1  0  0  0  0
  9 30  1  0  0  0  0
  9 31  1  0  0  0  0
 10 32  1  0  0  0  0
 10 33  1  0  0  0  0
 11 34  1  0  0  0  0
 11 35  1  0  0  0  0
 12 36  1  0  0  0  0
 12 37  1  0  0  0  0
 13 38  1  0  0  0  0
 13 39  1  0  0  0  0
 14 40  1  0  0  0  0
 14 41  1  0  0  0  0
 15 42  1  0  0  0  0
 15 43  1  0  0  0  0
 15 44  1  0  0  0  0
 17 45  1  0  0  0  0
 18 46  1  0  0  0  0
 18 47  1  0  0  0  0
M  END
