
  xtb     02032211353D
 xtb: 6.4.1 (23d549d)
 23 23  0     0  0            999 V2000
    4.0087   -0.4973   -0.0255 C   0  0  0  0  0  0  0  0  0  0  0  0
    3.0319    0.4015   -0.0378 C   0  0  0  0  0  0  0  0  0  0  0  0
    1.6183    0.0493   -0.0025 C   0  0  0  0  0  0  0  0  0  0  0  0
    0.6457    1.0518   -0.0106 C   0  0  0  0  0  0  0  0  0  0  0  0
   -0.6964    0.7016    0.0151 C   0  0  0  0  0  0  0  0  0  0  0  0
   -1.7226    1.5891    0.0022 O   0  0  0  0  0  0  0  0  0  0  0  0
   -1.4286    2.9647   -0.0249 C   0  0  0  0  0  0  0  0  0  0  0  0
   -1.0373   -0.6694    0.0484 C   0  0  0  0  0  0  0  0  0  0  0  0
   -2.4345   -1.0715    0.0814 C   0  0  0  0  0  0  0  0  0  0  0  0
   -2.9001   -2.2959   -0.1374 C   0  0  0  0  0  0  0  0  0  0  0  0
    0.0249   -1.5727    0.0683 C   0  0  0  0  0  0  0  0  0  0  0  0
    1.2972   -1.2433    0.0415 N   0  0  0  0  0  0  0  0  0  0  0  0
    5.0470   -0.2142   -0.0527 H   0  0  0  0  0  0  0  0  0  0  0  0
    3.7766   -1.5473    0.0127 H   0  0  0  0  0  0  0  0  0  0  0  0
    3.2508    1.4611   -0.0755 H   0  0  0  0  0  0  0  0  0  0  0  0
    0.9576    2.0841   -0.0390 H   0  0  0  0  0  0  0  0  0  0  0  0
   -2.3927    3.4709   -0.0232 H   0  0  0  0  0  0  0  0  0  0  0  0
   -0.8780    3.2398   -0.9300 H   0  0  0  0  0  0  0  0  0  0  0  0
   -0.8578    3.2712    0.8574 H   0  0  0  0  0  0  0  0  0  0  0  0
   -3.1251   -0.2660    0.2916 H   0  0  0  0  0  0  0  0  0  0  0  0
   -2.2605   -3.1276   -0.3781 H   0  0  0  0  0  0  0  0  0  0  0  0
   -3.9545   -2.5073   -0.0907 H   0  0  0  0  0  0  0  0  0  0  0  0
   -0.1693   -2.6353    0.1209 H   0  0  0  0  0  0  0  0  0  0  0  0
  1  2  2  0  0  0  0
  2  3  1  0  0  0  0
  3  4  4  0  0  0  0
  4  5  4  0  0  0  0
  5  6  1  0  0  0  0
  6  7  1  0  0  0  0
  5  8  4  0  0  0  0
  8  9  1  0  0  0  0
  9 10  2  0  0  0  0
  8 11  4  0  0  0  0
  3 12  4  0  0  0  0
 11 12  4  0  0  0  0
  1 13  1  0  0  0  0
  1 14  1  0  0  0  0
  2 15  1  0  0  0  0
  4 16  1  0  0  0  0
  7 17  1  0  0  0  0
  7 18  1  0  0  0  0
  7 19  1  0  0  0  0
  9 20  1  0  0  0  0
 10 21  1  0  0  0  0
 10 22  1  0  0  0  0
 11 23  1  0  0  0  0
M  END
