
  xtb     02032211353D
 xtb: 6.4.1 (23d549d)
 23 23  0     0  0            999 V2000
    4.7855    0.0757    0.0984 C   0  0  0  0  0  0  0  0  0  0  0  0
    3.5879    0.6488    0.0573 C   0  0  0  0  0  0  0  0  0  0  0  0
    2.3019   -0.0310   -0.0116 C   0  0  0  0  0  0  0  0  0  0  0  0
    2.1611   -1.4231   -0.0361 C   0  0  0  0  0  0  0  0  0  0  0  0
    0.9209   -2.0215   -0.0930 C   0  0  0  0  0  0  0  0  0  0  0  0
   -0.2557   -1.2634   -0.1347 C   0  0  0  0  0  0  0  0  0  0  0  0
   -1.5820   -1.8610   -0.1841 C   0  0  0  0  0  0  0  0  0  0  0  0
   -1.8793   -3.0748    0.2658 C   0  0  0  0  0  0  0  0  0  0  0  0
   -0.0964    0.1188   -0.1272 C   0  0  0  0  0  0  0  0  0  0  0  0
   -1.4934    1.2042   -0.1461 S   0  0  0  0  0  0  0  0  0  0  0  0
   -1.0947    2.5554    0.0332 O   0  0  0  0  0  0  0  0  0  0  0  0
   -2.4620    0.8833   -1.1358 O   0  0  0  0  0  0  0  0  0  0  0  0
   -2.1659    0.7418    1.2897 F   0  0  0  0  0  0  0  0  0  0  0  0
    1.1320    0.7312   -0.0564 C   0  0  0  0  0  0  0  0  0  0  0  0
    5.6832    0.6668    0.1494 H   0  0  0  0  0  0  0  0  0  0  0  0
    4.9261   -0.9914    0.0831 H   0  0  0  0  0  0  0  0  0  0  0  0
    3.5193    1.7288    0.0753 H   0  0  0  0  0  0  0  0  0  0  0  0
    3.0404   -2.0475   -0.0090 H   0  0  0  0  0  0  0  0  0  0  0  0
    0.8513   -3.0977   -0.1215 H   0  0  0  0  0  0  0  0  0  0  0  0
   -2.3537   -1.2315   -0.6012 H   0  0  0  0  0  0  0  0  0  0  0  0
   -1.1494   -3.7186    0.7283 H   0  0  0  0  0  0  0  0  0  0  0  0
   -2.8824   -3.4593    0.2078 H   0  0  0  0  0  0  0  0  0  0  0  0
    1.1622    1.8093   -0.0321 H   0  0  0  0  0  0  0  0  0  0  0  0
  1  2  2  0  0  0  0
  2  3  1  0  0  0  0
  3  4  4  0  0  0  0
  4  5  4  0  0  0  0
  5  6  4  0  0  0  0
  6  7  1  0  0  0  0
  7  8  2  0  0  0  0
  6  9  4  0  0  0  0
  9 10  1  0  0  0  0
 10 11  2  0  0  0  0
 10 12  2  0  0  0  0
 10 13  1  0  0  0  0
  3 14  4  0  0  0  0
  9 14  4  0  0  0  0
  1 15  1  0  0  0  0
  1 16  1  0  0  0  0
  2 17  1  0  0  0  0
  4 18  1  0  0  0  0
  5 19  1  0  0  0  0
  7 20  1  0  0  0  0
  8 21  1  0  0  0  0
  8 22  1  0  0  0  0
 14 23  1  0  0  0  0
M  END
