
  xtb     02032211353D
 xtb: 6.4.1 (23d549d)
 24 24  0     0  0            999 V2000
    4.2486   -0.9148   -0.0810 C   0  0  0  0  0  0  0  0  0  0  0  0
    3.3005    0.0145    0.0040 C   0  0  0  0  0  0  0  0  0  0  0  0
    1.8837   -0.2333    0.0350 C   0  0  0  0  0  0  0  0  0  0  0  0
    1.3187   -1.4628   -0.0167 N   0  0  0  0  0  0  0  0  0  0  0  0
   -0.0111   -1.4291    0.0251 N   0  0  0  0  0  0  0  0  0  0  0  0
   -0.3375   -0.1511    0.0843 C   0  0  0  0  0  0  0  0  0  0  0  0
   -1.6403    0.2965    0.2014 N   0  0  0  0  0  0  0  0  0  0  0  0
   -2.7800   -0.4329   -0.0234 C   0  0  0  0  0  0  0  0  0  0  0  0
   -4.0302    0.3754    0.2721 C   0  0  0  0  0  0  0  0  0  0  0  0
   -2.7902   -1.5682   -0.4212 O   0  0  0  0  0  0  0  0  0  0  0  0
    0.8203    0.6751    0.0929 C   0  0  0  0  0  0  0  0  0  0  0  0
    0.9089    2.1159    0.1610 C   0  0  0  0  0  0  0  0  0  0  0  0
    0.0047    2.9743   -0.3001 C   0  0  0  0  0  0  0  0  0  0  0  0
    5.2904   -0.6479   -0.0966 H   0  0  0  0  0  0  0  0  0  0  0  0
    4.0303   -1.9677   -0.1398 H   0  0  0  0  0  0  0  0  0  0  0  0
    3.5770    1.0586    0.0542 H   0  0  0  0  0  0  0  0  0  0  0  0
    1.7837   -2.3521   -0.0902 H   0  0  0  0  0  0  0  0  0  0  0  0
   -1.7298    1.2567    0.5028 H   0  0  0  0  0  0  0  0  0  0  0  0
   -4.0390    0.6835    1.3155 H   0  0  0  0  0  0  0  0  0  0  0  0
   -4.9044   -0.2367    0.0726 H   0  0  0  0  0  0  0  0  0  0  0  0
   -4.0644    1.2628   -0.3567 H   0  0  0  0  0  0  0  0  0  0  0  0
    1.8109    2.4989    0.6232 H   0  0  0  0  0  0  0  0  0  0  0  0
   -0.8791    2.6591   -0.8290 H   0  0  0  0  0  0  0  0  0  0  0  0
    0.1446    4.0373   -0.2044 H   0  0  0  0  0  0  0  0  0  0  0  0
  1  2  2  0  0  0  0
  2  3  1  0  0  0  0
  3  4  4  0  0  0  0
  4  5  1  0  0  0  0
  5  6  4  0  0  0  0
  6  7  1  0  0  0  0
  7  8  1  0  0  0  0
  8  9  1  0  0  0  0
  8 10  2  0  0  0  0
  3 11  4  0  0  0  0
  6 11  4  0  0  0  0
 11 12  1  0  0  0  0
 12 13  2  0  0  0  0
  1 14  1  0  0  0  0
  1 15  1  0  0  0  0
  2 16  1  0  0  0  0
  4 17  1  0  0  0  0
  7 18  1  0  0  0  0
  9 19  1  0  0  0  0
  9 20  1  0  0  0  0
  9 21  1  0  0  0  0
 12 22  1  0  0  0  0
 13 23  1  0  0  0  0
 13 24  1  0  0  0  0
M  END
