
 OpenBabel02012213593D

 22 22  0  0  0  0  0  0  0  0999 V2000
    2.9150   -0.0155    0.0057 C   0  0  0  0  0  0  0  0  0  0  0  0
    1.4145   -0.0132    0.0073 C   0  0  0  0  0  0  0  0  0  0  0  0
    0.6975   -1.2166    0.0040 C   0  0  0  0  0  0  0  0  0  0  0  0
   -0.6980   -1.2071    0.0061 C   0  0  0  0  0  0  0  0  0  0  0  0
   -1.4060    0.0042    0.0115 C   0  0  0  0  0  0  0  0  0  0  0  0
   -2.9133   -0.0244    0.0077 C   0  0  0  0  0  0  0  0  0  0  0  0
   -0.6867    1.2234    0.0155 C   0  0  0  0  0  0  0  0  0  0  0  0
   -1.3875    2.5499    0.0158 C   0  0  0  0  0  0  0  0  0  0  0  0
   -1.6797    3.0795    1.3493 C   0  0  0  0  0  0  0  0  0  0  0  0
   -1.9146    3.5053    2.3986 N   0  0  0  0  0  0  0  0  0  0  0  0
    0.7185    1.2023    0.0123 C   0  0  0  0  0  0  0  0  0  0  0  0
    3.3186   -1.0505   -0.0011 H   0  0  0  0  0  0  0  0  0  0  0  0
    3.2897    0.5011    0.9144 H   0  0  0  0  0  0  0  0  0  0  0  0
    3.2910    0.5138   -0.8953 H   0  0  0  0  0  0  0  0  0  0  0  0
    1.2169   -2.1659   -0.0013 H   0  0  0  0  0  0  0  0  0  0  0  0
   -1.2279   -2.1511    0.0008 H   0  0  0  0  0  0  0  0  0  0  0  0
   -3.3014   -1.0653    0.0151 H   0  0  0  0  0  0  0  0  0  0  0  0
   -3.3031    0.4735   -0.9051 H   0  0  0  0  0  0  0  0  0  0  0  0
   -3.3049    0.4958    0.9067 H   0  0  0  0  0  0  0  0  0  0  0  0
   -2.2870    2.6205   -0.6275 H   0  0  0  0  0  0  0  0  0  0  0  0
   -0.8653    3.3358   -0.5701 H   0  0  0  0  0  0  0  0  0  0  0  0
    1.2720    2.1354    0.0136 H   0  0  0  0  0  0  0  0  0  0  0  0
  1  2  1  0  0  0  0
  1 12  1  0  0  0  0
  1 13  1  0  0  0  0
  1 14  1  0  0  0  0
  2  3  1  0  0  0  0
  2 11  2  0  0  0  0
  3  4  2  0  0  0  0
  3 15  1  0  0  0  0
  4  5  1  0  0  0  0
  4 16  1  0  0  0  0
  5  6  1  0  0  0  0
  5  7  2  0  0  0  0
  6 17  1  0  0  0  0
  6 18  1  0  0  0  0
  6 19  1  0  0  0  0
  7  8  1  0  0  0  0
  7 11  1  0  0  0  0
  8  9  1  0  0  0  0
  8 20  1  0  0  0  0
  8 21  1  0  0  0  0
  9 10  3  0  0  0  0
 11 22  1  0  0  0  0
M  END
