
  xtb     02032211353D
 xtb: 6.4.1 (23d549d)
 20 20  0     0  0            999 V2000
   -3.7350    0.8127   -0.0138 C   0  0  0  0  0  0  0  0  0  0  0  0
   -3.0141   -0.3018   -0.0327 C   0  0  0  0  0  0  0  0  0  0  0  0
   -1.5593   -0.4060   -0.0154 C   0  0  0  0  0  0  0  0  0  0  0  0
   -0.9749   -1.6744   -0.0159 C   0  0  0  0  0  0  0  0  0  0  0  0
    0.3977   -1.8135    0.0041 C   0  0  0  0  0  0  0  0  0  0  0  0
    1.2019   -0.6894    0.0202 C   0  0  0  0  0  0  0  0  0  0  0  0
    2.5368   -0.8938    0.0463 F   0  0  0  0  0  0  0  0  0  0  0  0
    0.6717    0.6037    0.0173 C   0  0  0  0  0  0  0  0  0  0  0  0
    1.4526    1.8359    0.0321 C   0  0  0  0  0  0  0  0  0  0  0  0
    2.7709    1.9669   -0.0579 C   0  0  0  0  0  0  0  0  0  0  0  0
   -0.7198    0.7037    0.0029 C   0  0  0  0  0  0  0  0  0  0  0  0
   -4.8109    0.7810   -0.0289 H   0  0  0  0  0  0  0  0  0  0  0  0
   -3.2957    1.7948    0.0174 H   0  0  0  0  0  0  0  0  0  0  0  0
   -3.5278   -1.2551   -0.0626 H   0  0  0  0  0  0  0  0  0  0  0  0
   -1.6009   -2.5543   -0.0294 H   0  0  0  0  0  0  0  0  0  0  0  0
    0.8626   -2.7873    0.0082 H   0  0  0  0  0  0  0  0  0  0  0  0
    0.8453    2.7294    0.1187 H   0  0  0  0  0  0  0  0  0  0  0  0
    3.4443    1.1352   -0.1548 H   0  0  0  0  0  0  0  0  0  0  0  0
    3.2266    2.9429   -0.0388 H   0  0  0  0  0  0  0  0  0  0  0  0
   -1.1520    1.6927    0.0022 H   0  0  0  0  0  0  0  0  0  0  0  0
  1  2  2  0  0  0  0
  2  3  1  0  0  0  0
  3  4  4  0  0  0  0
  4  5  4  0  0  0  0
  5  6  4  0  0  0  0
  6  7  1  0  0  0  0
  6  8  4  0  0  0  0
  8  9  1  0  0  0  0
  9 10  2  0  0  0  0
  3 11  4  0  0  0  0
  8 11  4  0  0  0  0
  1 12  1  0  0  0  0
  1 13  1  0  0  0  0
  2 14  1  0  0  0  0
  4 15  1  0  0  0  0
  5 16  1  0  0  0  0
  9 17  1  0  0  0  0
 10 18  1  0  0  0  0
 10 19  1  0  0  0  0
 11 20  1  0  0  0  0
M  END
