
  xtb     02032211353D
 xtb: 6.4.1 (23d549d)
 33 34  0     0  0            999 V2000
   -2.6214    3.2572   -0.1100 C   0  0  0  0  0  0  0  0  0  0  0  0
   -2.8416    1.9501   -0.2333 C   0  0  0  0  0  0  0  0  0  0  0  0
   -1.8677    0.9154   -0.0130 C   0  0  0  0  0  0  0  0  0  0  0  0
   -0.5472    1.0128    0.3475 C   0  0  0  0  0  0  0  0  0  0  0  0
    0.1138   -0.2222    0.4710 C   0  0  0  0  0  0  0  0  0  0  0  0
    1.5644   -0.4219    0.8283 C   0  0  0  0  0  0  0  0  0  0  0  0
    2.3502   -1.0392   -0.3430 C   0  0  0  0  0  0  0  0  0  0  0  0
    2.6206   -0.0205   -1.4432 C   0  0  0  0  0  0  0  0  0  0  0  0
    3.4468    1.1336   -0.8892 C   0  0  0  0  0  0  0  0  0  0  0  0
    2.6681    1.8253    0.2227 C   0  0  0  0  0  0  0  0  0  0  0  0
    2.2841    0.8393    1.3262 C   0  0  0  0  0  0  0  0  0  0  0  0
   -0.7332   -1.2883    0.2238 C   0  0  0  0  0  0  0  0  0  0  0  0
   -0.4544   -2.6953    0.3275 C   0  0  0  0  0  0  0  0  0  0  0  0
   -1.2613   -3.6639   -0.0987 C   0  0  0  0  0  0  0  0  0  0  0  0
   -2.3283   -0.7458   -0.2043 S   0  0  0  0  0  0  0  0  0  0  0  0
   -3.4026    3.9743   -0.2896 H   0  0  0  0  0  0  0  0  0  0  0  0
   -1.6624    3.6548    0.1737 H   0  0  0  0  0  0  0  0  0  0  0  0
   -3.8237    1.5967   -0.5201 H   0  0  0  0  0  0  0  0  0  0  0  0
   -0.0862    1.9628    0.5369 H   0  0  0  0  0  0  0  0  0  0  0  0
    1.5834   -1.1461    1.6548 H   0  0  0  0  0  0  0  0  0  0  0  0
    1.7988   -1.8855   -0.7550 H   0  0  0  0  0  0  0  0  0  0  0  0
    3.3053   -1.4116    0.0366 H   0  0  0  0  0  0  0  0  0  0  0  0
    1.6726    0.3593   -1.8311 H   0  0  0  0  0  0  0  0  0  0  0  0
    3.1516   -0.5043   -2.2659 H   0  0  0  0  0  0  0  0  0  0  0  0
    3.6779    1.8493   -1.6809 H   0  0  0  0  0  0  0  0  0  0  0  0
    4.3918    0.7490   -0.4977 H   0  0  0  0  0  0  0  0  0  0  0  0
    1.7804    2.2806   -0.2164 H   0  0  0  0  0  0  0  0  0  0  0  0
    3.2687    2.6270    0.6596 H   0  0  0  0  0  0  0  0  0  0  0  0
    1.6672    1.3397    2.0761 H   0  0  0  0  0  0  0  0  0  0  0  0
    3.2029    0.5164    1.8236 H   0  0  0  0  0  0  0  0  0  0  0  0
    0.4813   -2.9507    0.8077 H   0  0  0  0  0  0  0  0  0  0  0  0
   -2.1974   -3.4441   -0.5849 H   0  0  0  0  0  0  0  0  0  0  0  0
   -1.0102   -4.7027    0.0228 H   0  0  0  0  0  0  0  0  0  0  0  0
  1  2  2  0  0  0  0
  2  3  1  0  0  0  0
  3  4  4  0  0  0  0
  4  5  4  0  0  0  0
  5  6  1  0  0  0  0
  6  7  1  0  0  0  0
  7  8  1  0  0  0  0
  8  9  1  0  0  0  0
  9 10  1  0  0  0  0
  6 11  1  0  0  0  0
 10 11  1  0  0  0  0
  5 12  4  0  0  0  0
 12 13  1  0  0  0  0
 13 14  2  0  0  0  0
  3 15  1  0  0  0  0
 12 15  1  0  0  0  0
  1 16  1  0  0  0  0
  1 17  1  0  0  0  0
  2 18  1  0  0  0  0
  4 19  1  0  0  0  0
  6 20  1  0  0  0  0
  7 21  1  0  0  0  0
  7 22  1  0  0  0  0
  8 23  1  0  0  0  0
  8 24  1  0  0  0  0
  9 25  1  0  0  0  0
  9 26  1  0  0  0  0
 10 27  1  0  0  0  0
 10 28  1  0  0  0  0
 11 29  1  0  0  0  0
 11 30  1  0  0  0  0
 13 31  1  0  0  0  0
 14 32  1  0  0  0  0
 14 33  1  0  0  0  0
M  END
