
 OpenBabel02032211023D

 23 23  0  0  0  0  0  0  0  0999 V2000
    0.9599    0.1868    0.0977 C   0  0  0  0  0  0  0  0  0  0  0  0
    2.1749   -0.2361   -0.2769 C   0  0  0  0  0  0  0  0  0  0  0  0
    2.9849    0.3550   -1.3798 C   0  0  0  0  0  0  0  0  0  0  0  0
    4.2303   -0.2239   -1.6695 C   0  0  0  0  0  0  0  0  0  0  0  0
    5.0498    0.2766   -2.6941 C   0  0  0  0  0  0  0  0  0  0  0  0
    6.3574   -0.3964   -2.9377 C   0  0  0  0  0  0  0  0  0  0  0  0
    7.2576   -0.0224   -3.8568 C   0  0  0  0  0  0  0  0  0  0  0  0
    4.6029    1.3838   -3.4415 C   0  0  0  0  0  0  0  0  0  0  0  0
    3.3594    1.9792   -3.1680 C   0  0  0  0  0  0  0  0  0  0  0  0
    2.8611    3.1672   -3.9565 C   0  0  0  0  0  0  0  0  0  0  0  0
    3.7609    3.5518   -4.9357 F   0  0  0  0  0  0  0  0  0  0  0  0
    1.6615    2.8448   -4.5652 F   0  0  0  0  0  0  0  0  0  0  0  0
    2.6597    4.2349   -3.1010 F   0  0  0  0  0  0  0  0  0  0  0  0
    2.5580    1.4605   -2.1392 C   0  0  0  0  0  0  0  0  0  0  0  0
    0.4504   -0.3134    0.9152 H   0  0  0  0  0  0  0  0  0  0  0  0
    0.4473    1.0113   -0.3789 H   0  0  0  0  0  0  0  0  0  0  0  0
    2.5939   -1.0770    0.2696 H   0  0  0  0  0  0  0  0  0  0  0  0
    4.5669   -1.0762   -1.0897 H   0  0  0  0  0  0  0  0  0  0  0  0
    6.6091   -1.2579   -2.3246 H   0  0  0  0  0  0  0  0  0  0  0  0
    7.1140    0.8215   -4.5178 H   0  0  0  0  0  0  0  0  0  0  0  0
    8.1830   -0.5810   -3.9538 H   0  0  0  0  0  0  0  0  0  0  0  0
    5.2105    1.7888   -4.2349 H   0  0  0  0  0  0  0  0  0  0  0  0
    1.6076    1.9355   -1.9464 H   0  0  0  0  0  0  0  0  0  0  0  0
  1  2  2  0  0  0  0
  1 15  1  0  0  0  0
  1 16  1  0  0  0  0
  2  3  1  0  0  0  0
  2 17  1  0  0  0  0
  3  4  1  0  0  0  0
  3 14  2  0  0  0  0
  4  5  2  0  0  0  0
  4 18  1  0  0  0  0
  5  6  1  0  0  0  0
  5  8  1  0  0  0  0
  6  7  2  0  0  0  0
  6 19  1  0  0  0  0
  7 20  1  0  0  0  0
  7 21  1  0  0  0  0
  8  9  2  0  0  0  0
  8 22  1  0  0  0  0
  9 10  1  0  0  0  0
  9 14  1  0  0  0  0
 10 11  1  0  0  0  0
 10 12  1  0  0  0  0
 10 13  1  0  0  0  0
 14 23  1  0  0  0  0
M  END
