
 OpenBabel02032210593D

 31 33  0  0  0  0  0  0  0  0999 V2000
    1.3344    1.5128   -0.2111 C   0  0  0  0  0  0  0  0  0  0  0  0
    2.4277    1.7532   -0.9422 C   0  0  0  0  0  0  0  0  0  0  0  0
    3.0682    0.7386   -1.8035 C   0  0  0  0  0  0  0  0  0  0  0  0
    2.6848   -0.5896   -1.9885 C   0  0  0  0  0  0  0  0  0  0  0  0
    3.5197   -1.2884   -2.8689 C   0  0  0  0  0  0  0  0  0  0  0  0
    4.5552   -0.5128   -3.3792 C   0  0  0  0  0  0  0  0  0  0  0  0
    5.5911   -0.9656   -4.3204 C   0  0  0  0  0  0  0  0  0  0  0  0
    6.5770   -0.1673   -4.8908 C   0  0  0  0  0  0  0  0  0  0  0  0
    7.4244   -0.8669   -5.7571 C   0  0  0  0  0  0  0  0  0  0  0  0
    7.1105   -2.2177   -5.8624 C   0  0  0  0  0  0  0  0  0  0  0  0
    7.8225   -3.2036   -6.6903 C   0  0  0  0  0  0  0  0  0  0  0  0
    7.5638   -4.5698   -6.7379 C   0  0  0  0  0  0  0  0  0  0  0  0
    8.4016   -5.2627   -7.6209 C   0  0  0  0  0  0  0  0  0  0  0  0
    9.3169   -4.4364   -8.2736 C   0  0  0  0  0  0  0  0  0  0  0  0
   10.3311   -4.8252   -9.2738 C   0  0  0  0  0  0  0  0  0  0  0  0
   10.5193   -6.0842   -9.6812 C   0  0  0  0  0  0  0  0  0  0  0  0
    9.0894   -2.8576   -7.7443 S   0  0  0  0  0  0  0  0  0  0  0  0
    5.7765   -2.5419   -4.8863 S   0  0  0  0  0  0  0  0  0  0  0  0
    4.4329    1.0394   -2.7388 S   0  0  0  0  0  0  0  0  0  0  0  0
    0.9143    2.3031    0.4034 H   0  0  0  0  0  0  0  0  0  0  0  0
    0.8441    0.5464   -0.2090 H   0  0  0  0  0  0  0  0  0  0  0  0
    2.8704    2.7440   -0.9006 H   0  0  0  0  0  0  0  0  0  0  0  0
    1.8333   -1.0520   -1.5091 H   0  0  0  0  0  0  0  0  0  0  0  0
    3.3658   -2.3293   -3.1235 H   0  0  0  0  0  0  0  0  0  0  0  0
    6.6840    0.8920   -4.6919 H   0  0  0  0  0  0  0  0  0  0  0  0
    8.2430   -0.3956   -6.2855 H   0  0  0  0  0  0  0  0  0  0  0  0
    6.7963   -5.0571   -6.1509 H   0  0  0  0  0  0  0  0  0  0  0  0
    8.3271   -6.3302   -7.7705 H   0  0  0  0  0  0  0  0  0  0  0  0
   10.9569   -4.0458   -9.6996 H   0  0  0  0  0  0  0  0  0  0  0  0
    9.9297   -6.9089   -9.2950 H   0  0  0  0  0  0  0  0  0  0  0  0
   11.2822   -6.3028  -10.4227 H   0  0  0  0  0  0  0  0  0  0  0  0
  1  2  2  0  0  0  0
  1 20  1  0  0  0  0
  1 21  1  0  0  0  0
  2  3  1  0  0  0  0
  2 22  1  0  0  0  0
  3  4  2  0  0  0  0
  3 19  1  0  0  0  0
  4  5  1  0  0  0  0
  4 23  1  0  0  0  0
  5  6  2  0  0  0  0
  5 24  1  0  0  0  0
  6  7  1  0  0  0  0
  6 19  1  0  0  0  0
  7  8  2  0  0  0  0
  7 18  1  0  0  0  0
  8  9  1  0  0  0  0
  8 25  1  0  0  0  0
  9 10  2  0  0  0  0
  9 26  1  0  0  0  0
 10 11  1  0  0  0  0
 10 18  1  0  0  0  0
 11 12  2  0  0  0  0
 11 17  1  0  0  0  0
 12 13  1  0  0  0  0
 12 27  1  0  0  0  0
 13 14  2  0  0  0  0
 13 28  1  0  0  0  0
 14 15  1  0  0  0  0
 14 17  1  0  0  0  0
 15 16  2  0  0  0  0
 15 29  1  0  0  0  0
 16 30  1  0  0  0  0
 16 31  1  0  0  0  0
M  END
