18

C          0.99530        0.06370        0.02840
C          2.49520        0.10170        0.02930
C          3.18220        1.32680        0.02770
C          4.58660        1.35320        0.02850
C          5.32920        2.65690        0.02650
C          5.30050        0.14580        0.03120
C          4.61950       -1.07500        0.03270
F          5.31570       -2.23870        0.03530
C          3.22180       -1.09810        0.03190
H          0.56150        1.08630        0.02730
H          0.63470       -0.46920        0.93320
H          0.63600       -0.47060       -0.87630
H          2.62590        2.25650        0.02570
H          4.63310        3.52270        0.02430
H          5.97010        2.71990       -0.87810
H          5.96900        2.72350        0.93140
H          6.38370        0.15220        0.03180
H          2.70440       -2.04960        0.03300
