
 OpenBabel02032210583D

 24 25  0  0  0  0  0  0  0  0999 V2000
    1.0870   -0.1965   -0.1517 C   0  0  0  0  0  0  0  0  0  0  0  0
    2.3902    0.0824   -0.0075 C   0  0  0  0  0  0  0  0  0  0  0  0
    3.1318    0.0542    1.2742 C   0  0  0  0  0  0  0  0  0  0  0  0
    2.7529   -0.8508    2.2732 C   0  0  0  0  0  0  0  0  0  0  0  0
    3.4326   -0.8906    3.4826 C   0  0  0  0  0  0  0  0  0  0  0  0
    4.5087   -0.0271    3.7188 C   0  0  0  0  0  0  0  0  0  0  0  0
    5.2333   -0.0923    5.0090 C   0  0  0  0  0  0  0  0  0  0  0  0
    4.6923   -0.4134    6.1926 C   0  0  0  0  0  0  0  0  0  0  0  0
    4.9432    0.8552    2.7099 C   0  0  0  0  0  0  0  0  0  0  0  0
    6.0146    1.6647    2.9200 N   0  0  0  0  0  0  0  0  0  0  0  0
    6.3841    2.4913    1.9231 C   0  0  0  0  0  0  0  0  0  0  0  0
    5.7160    2.5270    0.7250 C   0  0  0  0  0  0  0  0  0  0  0  0
    4.6500    1.7407    0.4811 N   0  0  0  0  0  0  0  0  0  0  0  0
    4.2455    0.8958    1.4670 C   0  0  0  0  0  0  0  0  0  0  0  0
    0.6192   -0.1326   -1.1292 H   0  0  0  0  0  0  0  0  0  0  0  0
    0.4473   -0.4694    0.6805 H   0  0  0  0  0  0  0  0  0  0  0  0
    2.9643    0.3893   -0.8806 H   0  0  0  0  0  0  0  0  0  0  0  0
    1.9299   -1.5439    2.1175 H   0  0  0  0  0  0  0  0  0  0  0  0
    3.1176   -1.6116    4.2328 H   0  0  0  0  0  0  0  0  0  0  0  0
    6.2878    0.1771    4.9694 H   0  0  0  0  0  0  0  0  0  0  0  0
    3.6426   -0.6554    6.3165 H   0  0  0  0  0  0  0  0  0  0  0  0
    5.3066   -0.4166    7.0878 H   0  0  0  0  0  0  0  0  0  0  0  0
    7.2391    3.1268    2.1210 H   0  0  0  0  0  0  0  0  0  0  0  0
    6.0154    3.1906   -0.0774 H   0  0  0  0  0  0  0  0  0  0  0  0
  1  2  2  0  0  0  0
  1 15  1  0  0  0  0
  1 16  1  0  0  0  0
  2  3  1  0  0  0  0
  2 17  1  0  0  0  0
  3  4  1  0  0  0  0
  3 14  2  0  0  0  0
  4  5  2  0  0  0  0
  4 18  1  0  0  0  0
  5  6  1  0  0  0  0
  5 19  1  0  0  0  0
  6  7  1  0  0  0  0
  6  9  2  0  0  0  0
  7  8  2  0  0  0  0
  7 20  1  0  0  0  0
  8 21  1  0  0  0  0
  8 22  1  0  0  0  0
  9 10  1  0  0  0  0
  9 14  1  0  0  0  0
 10 11  2  0  0  0  0
 11 12  1  0  0  0  0
 11 23  1  0  0  0  0
 12 13  2  0  0  0  0
 12 24  1  0  0  0  0
 13 14  1  0  0  0  0
M  END
