
 OpenBabel02012213533D

 22 22  0  0  0  0  0  0  0  0999 V2000
    2.5218    1.1310    0.0293 C   0  0  0  0  0  0  0  0  0  0  0  0
    1.2263    0.3738    0.0265 C   0  0  0  0  0  0  0  0  0  0  0  0
   -0.0034    1.0403   -0.0010 C   0  0  0  0  0  0  0  0  0  0  0  0
   -1.2020    0.3241   -0.0119 C   0  0  0  0  0  0  0  0  0  0  0  0
   -2.5283    1.0294   -0.0117 C   0  0  0  0  0  0  0  0  0  0  0  0
   -1.1569   -1.0764   -0.0165 C   0  0  0  0  0  0  0  0  0  0  0  0
    0.0625   -1.7577   -0.0259 C   0  0  0  0  0  0  0  0  0  0  0  0
   -0.0390   -3.1146   -0.0377 O   0  0  0  0  0  0  0  0  0  0  0  0
    0.9696   -3.8896   -0.6748 C   0  0  0  0  0  0  0  0  0  0  0  0
    1.9055   -3.1675   -1.3268 F   0  0  0  0  0  0  0  0  0  0  0  0
    1.5818   -4.6622    0.2460 F   0  0  0  0  0  0  0  0  0  0  0  0
    0.3771   -4.7026   -1.5789 F   0  0  0  0  0  0  0  0  0  0  0  0
    1.2495   -1.0303    0.0449 C   0  0  0  0  0  0  0  0  0  0  0  0
    2.3551    2.2141    0.0061 H   0  0  0  0  0  0  0  0  0  0  0  0
    3.1118    0.8652   -0.8529 H   0  0  0  0  0  0  0  0  0  0  0  0
    3.0957    0.8977    0.9305 H   0  0  0  0  0  0  0  0  0  0  0  0
   -0.0243    2.1307   -0.0119 H   0  0  0  0  0  0  0  0  0  0  0  0
   -2.4041    2.1177    0.0059 H   0  0  0  0  0  0  0  0  0  0  0  0
   -3.1087    0.7454    0.8732 H   0  0  0  0  0  0  0  0  0  0  0  0
   -3.0918    0.7694   -0.9111 H   0  0  0  0  0  0  0  0  0  0  0  0
   -2.0855   -1.6441   -0.0313 H   0  0  0  0  0  0  0  0  0  0  0  0
    2.2124   -1.5271    0.1145 H   0  0  0  0  0  0  0  0  0  0  0  0
  1  2  1  0  0  0  0
  1 14  1  0  0  0  0
  1 15  1  0  0  0  0
  1 16  1  0  0  0  0
  2  3  1  0  0  0  0
  2 13  2  0  0  0  0
  3  4  2  0  0  0  0
  3 17  1  0  0  0  0
  4  5  1  0  0  0  0
  4  6  1  0  0  0  0
  5 18  1  0  0  0  0
  5 19  1  0  0  0  0
  5 20  1  0  0  0  0
  6  7  2  0  0  0  0
  6 21  1  0  0  0  0
  7  8  1  0  0  0  0
  7 13  1  0  0  0  0
  8  9  1  0  0  0  0
  9 10  1  0  0  0  0
  9 11  1  0  0  0  0
  9 12  1  0  0  0  0
 13 22  1  0  0  0  0
M  END
