
  xtb     02032211363D
 xtb: 6.4.1 (23d549d)
 23 23  0     0  0            999 V2000
   -3.1487   -2.8214   -0.0024 C   0  0  0  0  0  0  0  0  0  0  0  0
   -3.0666   -1.4945   -0.0004 C   0  0  0  0  0  0  0  0  0  0  0  0
   -1.8356   -0.7471   -0.0001 C   0  0  0  0  0  0  0  0  0  0  0  0
   -0.5180   -1.1237   -0.0013 C   0  0  0  0  0  0  0  0  0  0  0  0
    0.2517    0.0682   -0.0007 C   0  0  0  0  0  0  0  0  0  0  0  0
    1.7151    0.0795   -0.0024 C   0  0  0  0  0  0  0  0  0  0  0  0
    2.4394    1.0468   -0.0091 O   0  0  0  0  0  0  0  0  0  0  0  0
    2.1987   -1.1768    0.0045 O   0  0  0  0  0  0  0  0  0  0  0  0
    3.6117   -1.2910    0.0027 C   0  0  0  0  0  0  0  0  0  0  0  0
   -0.6673    1.1173    0.0010 C   0  0  0  0  0  0  0  0  0  0  0  0
   -0.6055    2.5561    0.0036 C   0  0  0  0  0  0  0  0  0  0  0  0
    0.4876    3.3142    0.0031 C   0  0  0  0  0  0  0  0  0  0  0  0
   -1.9126    0.6055    0.0015 O   0  0  0  0  0  0  0  0  0  0  0  0
   -4.0997   -3.3233   -0.0026 H   0  0  0  0  0  0  0  0  0  0  0  0
   -2.2718   -3.4448   -0.0038 H   0  0  0  0  0  0  0  0  0  0  0  0
   -3.9594   -0.8839    0.0009 H   0  0  0  0  0  0  0  0  0  0  0  0
   -0.1256   -2.1184   -0.0026 H   0  0  0  0  0  0  0  0  0  0  0  0
    3.8304   -2.3557    0.0209 H   0  0  0  0  0  0  0  0  0  0  0  0
    4.0350   -0.7968    0.8799 H   0  0  0  0  0  0  0  0  0  0  0  0
    4.0300   -0.8286   -0.8941 H   0  0  0  0  0  0  0  0  0  0  0  0
   -1.5898    3.0093    0.0063 H   0  0  0  0  0  0  0  0  0  0  0  0
    1.4740    2.8879    0.0000 H   0  0  0  0  0  0  0  0  0  0  0  0
    0.4088    4.3878    0.0055 H   0  0  0  0  0  0  0  0  0  0  0  0
  1  2  2  0  0  0  0
  2  3  1  0  0  0  0
  3  4  2  0  0  0  0
  4  5  4  0  0  0  0
  5  6  1  0  0  0  0
  6  7  2  0  0  0  0
  6  8  1  0  0  0  0
  8  9  1  0  0  0  0
  5 10  4  0  0  0  0
 10 11  1  0  0  0  0
 11 12  2  0  0  0  0
  3 13  1  0  0  0  0
 10 13  1  0  0  0  0
  1 14  1  0  0  0  0
  1 15  1  0  0  0  0
  2 16  1  0  0  0  0
  4 17  1  0  0  0  0
  9 18  1  0  0  0  0
  9 19  1  0  0  0  0
  9 20  1  0  0  0  0
 11 21  1  0  0  0  0
 12 22  1  0  0  0  0
 12 23  1  0  0  0  0
M  END
