
  xtb     02032211353D
 xtb: 6.4.1 (23d549d)
 20 20  0     0  0            999 V2000
   -3.9371   -0.8937    0.2515 C   0  0  0  0  0  0  0  0  0  0  0  0
   -2.9202   -0.0513    0.1166 C   0  0  0  0  0  0  0  0  0  0  0  0
   -1.5225   -0.4335    0.0051 C   0  0  0  0  0  0  0  0  0  0  0  0
   -1.0629   -1.6938   -0.2795 C   0  0  0  0  0  0  0  0  0  0  0  0
    0.6361   -1.7951   -0.3802 S   0  0  0  0  0  0  0  0  0  0  0  0
    0.7830   -0.1021   -0.0358 C   0  0  0  0  0  0  0  0  0  0  0  0
    2.1689    0.3684    0.0969 C   0  0  0  0  0  0  0  0  0  0  0  0
    3.0998   -0.3489   -0.1635 O   0  0  0  0  0  0  0  0  0  0  0  0
    2.3636    1.6173    0.5505 O   0  0  0  0  0  0  0  0  0  0  0  0
   -0.4464    0.4981    0.1394 C   0  0  0  0  0  0  0  0  0  0  0  0
   -0.6896    1.9137    0.4258 C   0  0  0  0  0  0  0  0  0  0  0  0
   -0.2246    2.9216   -0.3027 C   0  0  0  0  0  0  0  0  0  0  0  0
   -4.9507   -0.5400    0.3238 H   0  0  0  0  0  0  0  0  0  0  0  0
   -3.7986   -1.9598    0.3020 H   0  0  0  0  0  0  0  0  0  0  0  0
   -3.1088    1.0136    0.0832 H   0  0  0  0  0  0  0  0  0  0  0  0
   -1.6523   -2.5717   -0.4539 H   0  0  0  0  0  0  0  0  0  0  0  0
    1.5305    2.0964    0.6934 H   0  0  0  0  0  0  0  0  0  0  0  0
   -1.3380    2.1057    1.2726 H   0  0  0  0  0  0  0  0  0  0  0  0
    0.3799    2.7602   -1.1812 H   0  0  0  0  0  0  0  0  0  0  0  0
   -0.4573    3.9452   -0.0637 H   0  0  0  0  0  0  0  0  0  0  0  0
  1  2  2  0  0  0  0
  2  3  1  0  0  0  0
  3  4  2  0  0  0  0
  4  5  1  0  0  0  0
  5  6  1  0  0  0  0
  6  7  1  0  0  0  0
  7  8  2  0  0  0  0
  7  9  1  0  0  0  0
  3 10  4  0  0  0  0
  6 10  4  0  0  0  0
 10 11  1  0  0  0  0
 11 12  2  0  0  0  0
  1 13  1  0  0  0  0
  1 14  1  0  0  0  0
  2 15  1  0  0  0  0
  4 16  1  0  0  0  0
  9 17  1  0  0  0  0
 11 18  1  0  0  0  0
 12 19  1  0  0  0  0
 12 20  1  0  0  0  0
M  END
