47

C         -2.38469       -6.11545       -3.81998
C         -2.36997       -4.79643       -4.04520
C         -1.15631       -4.05006       -4.43193
C         -0.83749       -2.72480       -4.14944
C          0.40375       -2.30910       -4.68328
C          0.95780       -0.91306       -4.51594
C          2.32040       -0.64960       -5.18690
C          2.28090       -0.84950       -6.71580
C          1.28950        0.09890       -7.40810
C          1.24165       -0.11575       -8.92419
C          0.79126       -1.55154       -9.22183
C          0.73747       -1.84224      -10.72402
C          2.13098       -1.66506      -11.34219
C          3.14803       -2.62566      -10.72115
C          2.73449       -4.07678      -10.95192
C          1.05725       -3.33957       -5.39625
C          2.35288       -3.37182       -6.13032
C          2.88254       -4.40810       -6.79182
S          0.08939       -4.71276       -5.32983
H         -3.31241       -6.59915       -3.53210
H         -1.49375       -6.72457       -3.90623
H         -3.29734       -4.24315       -3.93293
H         -1.48838       -2.07997       -3.57859
H          1.06251       -0.75479       -3.42592
H          0.22789       -0.19636       -4.94980
H          3.06445       -1.36489       -4.77243
H          2.65930        0.38564       -4.96564
H          2.01580       -1.90510       -6.94470
H          3.29970       -0.65270       -7.11580
H          1.58262        1.15031       -7.19456
H          0.26776       -0.07950       -7.01715
H          2.25596        0.04731       -9.35093
H          0.53505        0.60731       -9.38745
H         -0.21636       -1.71768       -8.77975
H          1.50857       -2.25841       -8.74858
H          0.02698       -1.13781      -11.21011
H          0.38302       -2.88329      -10.88960
H          2.47134       -0.61771      -11.18369
H          2.07090       -1.85879      -12.43651
H          3.21649       -2.44163       -9.62661
H          4.14841       -2.45733      -11.17617
H          1.74394       -4.27397      -10.48874
H          3.48286       -4.75674      -10.49507
H          2.67479       -4.29218      -12.04095
H          2.93414       -2.45429       -6.12193
H          2.42033       -5.37557       -6.87613
H          3.84388       -4.28719       -7.27923
47

C         -4.11986       -0.96916       -6.87255
C         -3.61450        0.22908       -6.55697
C         -2.28744        0.41545       -5.93750
C         -1.36101       -0.56129       -5.58327
C         -0.18530       -0.04613       -4.99097
C          0.95780       -0.91306       -4.51594
C          2.32040       -0.64960       -5.18690
C          2.28090       -0.84950       -6.71580
C          1.28950        0.09890       -7.40810
C          1.64485        1.57279       -7.18842
C          0.60669        2.45756       -7.89009
C          0.91070        3.94905       -7.72579
C         -0.16677        4.78415       -8.43081
C         -1.55463        4.52689       -7.83880
C         -1.59115        4.90154       -6.35950
C         -0.20687        1.36295       -4.88486
C          0.77850        2.33210       -4.32957
C          1.65266        2.11902       -3.33838
S         -1.65916        1.91111       -5.53076
H         -5.10619       -1.03320       -7.32039
H         -3.57960       -1.88905       -6.68771
H         -4.21263        1.11177       -6.76155
H         -1.53648       -1.61404       -5.74529
H          0.65596       -1.95705       -4.72362
H          1.08603       -0.74973       -3.42436
H          3.06445       -1.36489       -4.77243
H          2.65930        0.38564       -4.96564
H          2.01580       -1.90510       -6.94470
H          3.29970       -0.65270       -7.11580
H          0.26679       -0.09519       -7.01647
H          1.30014       -0.08372       -8.50134
H          2.65110        1.77632       -7.61687
H          1.66366        1.80019       -6.10001
H         -0.40134        2.24040       -7.47168
H          0.60164        2.21344       -8.97570
H          1.90317        4.17413       -8.17486
H          0.93751        4.20691       -6.64429
H         -0.17696        4.52950       -9.51384
H          0.07971        5.86387       -8.32063
H         -1.81198        3.45008       -7.94285
H         -2.31222        5.13079       -8.38424
H         -0.85380        4.29615       -5.78989
H         -2.60365        4.70811       -5.94897
H         -1.35325        5.97962       -6.22880
H          0.78295        3.32285       -4.77477
H          1.75250        1.19023       -2.80534
H          2.31115        2.92503       -3.03325
47

C         -0.00302       -3.46220        0.37468
C          0.33571       -2.16857        0.42501
C          0.61408       -1.35266       -0.77349
C          0.57990       -1.74819       -2.10771
C          0.91670       -0.72003       -3.01762
C          0.95780       -0.91306       -4.51594
C          2.32040       -0.64960       -5.18690
C          2.28090       -0.84950       -6.71580
C          1.28950        0.09890       -7.40810
C          1.64485        1.57279       -7.18842
C          3.03582        1.85409       -7.77067
C          3.46416        3.31023       -7.57024
C          3.52332        3.63748       -6.07198
C          3.93197        5.09254       -5.82982
C          2.92488        6.05077       -6.46036
C          1.21937        0.49809       -2.36814
C          1.63259        1.82848       -2.89526
C          1.37585        3.02722       -2.35755
S          1.04980        0.26090       -0.71230
H         -0.18753       -4.00364        1.29679
H         -0.09238       -3.99828       -0.56174
H          0.41586       -1.69338        1.39789
H          0.32372       -2.75258       -2.40923
H          0.21398       -0.20927       -4.93493
H          0.67415       -1.96426       -4.73770
H          3.06445       -1.36489       -4.77243
H          2.65930        0.38564       -4.96564
H          2.01580       -1.90510       -6.94470
H          3.29970       -0.65270       -7.11580
H          0.26679       -0.09519       -7.01647
H          1.30014       -0.08372       -8.50134
H          1.65196        1.79077       -6.09757
H          0.88878        2.22267       -7.68107
H          3.03108        1.61954       -8.85847
H          3.77627        1.19340       -7.26729
H          2.72824        3.98187       -8.06485
H          4.46430        3.47096       -8.02930
H          4.25806        2.96314       -5.57868
H          2.52066        3.46294       -5.62155
H          4.93317        5.27918       -6.27627
H          3.98446        5.28982       -4.73690
H          2.86897        5.88457       -7.55758
H          3.23800        7.09887       -6.27451
H          1.91656        5.89606       -6.01844
H          2.19952        1.82450       -3.82174
H          0.82139        3.17940       -1.44862
H          1.73826        3.91856       -2.85807
47

C          0.41041       -7.10360       -4.83062
C          0.75569       -6.02893       -4.11187
C          0.36820       -4.65040       -4.47115
C          1.06240       -3.47051       -4.21874
C          0.40375       -2.30910       -4.68328
C          0.95780       -0.91306       -4.51594
C          2.32040       -0.64960       -5.18690
C          2.28090       -0.84950       -6.71580
C          1.28950        0.09890       -7.40810
C          1.24165       -0.11575       -8.92419
C          0.79126       -1.55154       -9.22183
C         -0.60587       -1.84672       -8.66969
C         -1.63308       -0.90504       -9.31271
C         -1.68817       -1.08570      -10.83165
C         -2.09604       -2.51137      -11.19375
C         -0.82969       -2.60125       -5.30819
C         -1.86154       -1.72355       -5.92745
C         -2.92147       -1.17112       -5.32465
S         -1.04960       -4.26771       -5.27151
H          0.73573       -8.08836       -4.51137
H         -0.18072       -7.02653       -5.73444
H          1.35707       -6.17582       -3.21996
H          2.01379       -3.45427       -3.70892
H          1.06251       -0.75479       -3.42592
H          0.22789       -0.19636       -4.94980
H          3.06445       -1.36489       -4.77243
H          2.65930        0.38564       -4.96564
H          2.01580       -1.90510       -6.94470
H          3.29970       -0.65270       -7.11580
H          1.58262        1.15031       -7.19456
H          0.26776       -0.07950       -7.01715
H          2.25596        0.04731       -9.35093
H          0.53505        0.60731       -9.38745
H          1.52034       -2.26350       -8.77473
H          0.77682       -1.70223      -10.32422
H         -0.60606       -1.69429       -7.56784
H         -0.87709       -2.90304       -8.88757
H         -1.36145        0.14811       -9.07816
H         -2.63872       -1.11751       -8.88583
H         -0.68781       -0.87625      -11.26981
H         -2.42562       -0.37639      -11.26661
H         -1.36197       -3.23833      -10.78474
H         -2.13012       -2.62242      -12.29721
H         -3.10236       -2.74117      -10.78090
H         -1.74318       -1.51448       -6.98674
H         -3.16395       -1.29861       -4.28461
H         -3.59675       -0.55326       -5.90654
47

C          9.52833       -1.16130       -4.41545
C          8.35603       -0.67968       -3.98589
C          7.06214       -1.00177       -4.61967
C          5.80872       -1.08100       -4.01933
C          4.76885       -1.43064       -4.91091
C          3.32606       -1.58658       -4.48906
C          2.32040       -0.64960       -5.18690
C          2.28090       -0.84950       -6.71580
C          1.28950        0.09890       -7.40810
C          1.64485        1.57279       -7.18842
C          0.60669        2.45756       -7.89009
C          0.91070        3.94905       -7.72579
C         -0.16677        4.78415       -8.43081
C         -1.55463        4.52689       -7.83880
C         -1.59115        4.90154       -6.35950
C          5.23286       -1.62713       -6.23127
C          4.52657       -2.01122       -7.48513
C          4.84894       -1.65917       -8.73579
S          6.89161       -1.35304       -6.24593
H         10.44307       -0.87740       -3.90540
H          9.60102       -1.82431       -5.26833
H          8.35469       -0.01237       -3.12948
H          5.65626       -0.89590       -2.96680
H          3.30258       -1.38545       -3.40134
H          3.01342       -2.63107       -4.70343
H          2.62188        0.40312       -4.99216
H          1.30101       -0.81080       -4.77412
H          2.01580       -1.90510       -6.94470
H          3.29970       -0.65270       -7.11580
H          0.26679       -0.09519       -7.01647
H          1.30014       -0.08372       -8.50134
H          2.65110        1.77632       -7.61687
H          1.66366        1.80019       -6.10001
H         -0.40134        2.24040       -7.47168
H          0.60164        2.21344       -8.97570
H          1.90317        4.17413       -8.17486
H          0.93751        4.20691       -6.64429
H         -0.17696        4.52950       -9.51384
H          0.07971        5.86387       -8.32063
H         -1.81198        3.45008       -7.94285
H         -2.31222        5.13079       -8.38424
H         -0.85380        4.29615       -5.78989
H         -2.60365        4.70811       -5.94897
H         -1.35325        5.97962       -6.22880
H          3.64950       -2.64155       -7.37011
H          5.68580       -1.03529       -8.99494
H          4.23585       -2.01213       -9.55793
47

C          0.41041       -7.10360       -4.83062
C          0.75569       -6.02893       -4.11187
C          0.36820       -4.65040       -4.47115
C          1.06240       -3.47051       -4.21874
C          0.40375       -2.30910       -4.68328
C          0.95780       -0.91306       -4.51594
C          2.32040       -0.64960       -5.18690
C          2.28090       -0.84950       -6.71580
C          1.28950        0.09890       -7.40810
C          1.24165       -0.11575       -8.92419
C          2.63740        0.11704       -9.51634
C          2.65952       -0.06443      -11.03638
C          4.08027        0.16262      -11.57053
C          5.07291       -0.83629      -10.97080
C          4.68222       -2.26856      -11.32571
C         -0.82969       -2.60125       -5.30819
C         -1.86154       -1.72355       -5.92745
C         -1.92998       -1.33291       -7.20602
S         -1.04960       -4.26771       -5.27151
H          0.73573       -8.08836       -4.51137
H         -0.18072       -7.02653       -5.73444
H          1.35707       -6.17582       -3.21996
H          2.01379       -3.45427       -3.70892
H          1.06251       -0.75479       -3.42592
H          0.22789       -0.19636       -4.94980
H          3.06445       -1.36489       -4.77243
H          2.65930        0.38564       -4.96564
H          2.01580       -1.90510       -6.94470
H          3.29970       -0.65270       -7.11580
H          1.58262        1.15031       -7.19456
H          0.26776       -0.07950       -7.01715
H          0.52573        0.60629       -9.37546
H          0.90127       -1.15004       -9.15020
H          3.35517       -0.59499       -9.05142
H          2.96035        1.15478       -9.27764
H          1.96838        0.67045      -11.50498
H          2.32152       -1.09219      -11.29388
H          4.40449        1.19713      -11.32034
H          4.07537        0.04833      -12.67759
H          5.08624       -0.73165       -9.86381
H          6.09309       -0.63145      -11.36249
H          3.67167       -2.50274      -10.92748
H          5.41243       -2.97677      -10.88260
H          4.67760       -2.40484      -12.42904
H         -2.64052       -1.35539       -5.26606
H         -1.22397       -1.61570       -7.96650
H         -2.74142       -0.68374       -7.51667
47

C          7.70392       -4.21387       -6.78495
C          7.88488       -2.93600       -6.43135
C          6.83414       -2.10712       -5.80807
C          5.53004       -2.47327       -5.48711
C          4.76885       -1.43064       -4.91091
C          3.32606       -1.58658       -4.48906
C          2.32040       -0.64960       -5.18690
C          2.28090       -0.84950       -6.71580
C          1.28950        0.09890       -7.40810
C          1.24165       -0.11575       -8.92419
C          0.79126       -1.55154       -9.22183
C         -0.60587       -1.84672       -8.66969
C         -1.63308       -0.90504       -9.31271
C         -3.04287       -1.15752       -8.77272
C         -3.47750       -2.59565       -9.04272
C          5.50449       -0.23045       -4.78596
C          5.13159        1.11269       -4.26110
C          5.93643        2.00006       -3.66375
S          7.05419       -0.50624       -5.37686
H          8.51908       -4.76265       -7.24523
H          6.76111       -4.72488       -6.63585
H          8.85318       -2.48124       -6.61664
H          5.14325       -3.46423       -5.67076
H          3.30258       -1.38545       -3.40134
H          3.01342       -2.63107       -4.70343
H          2.62188        0.40312       -4.99216
H          1.30101       -0.81080       -4.77412
H          2.01580       -1.90510       -6.94470
H          3.29970       -0.65270       -7.11580
H          1.58262        1.15031       -7.19456
H          0.26776       -0.07950       -7.01715
H          2.25596        0.04731       -9.35093
H          0.53505        0.60731       -9.38745
H          1.52034       -2.26350       -8.77473
H          0.77682       -1.70223      -10.32422
H         -0.60606       -1.69429       -7.56784
H         -0.87709       -2.90304       -8.88757
H         -1.62969       -1.05726      -10.41486
H         -1.34583        0.14841       -9.09730
H         -3.76153       -0.46677       -9.26561
H         -3.06261       -0.97287       -7.67651
H         -3.48348       -2.79821      -10.13522
H         -4.50029       -2.75886       -8.64475
H         -2.78353       -3.30795       -8.54576
H          4.08982        1.40015       -4.37011
H          6.98556        1.84489       -3.48491
H          5.52248        2.94376       -3.32549
47

C         -0.00302       -3.46220        0.37468
C          0.33571       -2.16857        0.42501
C          0.61408       -1.35266       -0.77349
C          0.57990       -1.74819       -2.10771
C          0.91670       -0.72003       -3.01762
C          0.95780       -0.91306       -4.51594
C          2.32040       -0.64960       -5.18690
C          2.28090       -0.84950       -6.71580
C          1.28950        0.09890       -7.40810
C          1.24165       -0.11575       -8.92419
C          0.79126       -1.55154       -9.22183
C          0.73747       -1.84224      -10.72402
C          2.13098       -1.66506      -11.34219
C          2.11547       -1.93049      -12.84955
C          1.18001       -0.95715      -13.56198
C          1.21937        0.49809       -2.36814
C          1.63259        1.82848       -2.89526
C          2.41046        2.73327       -2.28838
S          1.04980        0.26090       -0.71230
H         -0.18753       -4.00364        1.29679
H         -0.09238       -3.99828       -0.56174
H          0.41586       -1.69338        1.39789
H          0.32372       -2.75258       -2.40923
H          0.21398       -0.20927       -4.93493
H          0.67415       -1.96426       -4.73770
H          3.06445       -1.36489       -4.77243
H          2.65930        0.38564       -4.96564
H          2.01580       -1.90510       -6.94470
H          3.29970       -0.65270       -7.11580
H          1.58262        1.15031       -7.19456
H          0.26776       -0.07950       -7.01715
H          2.25596        0.04731       -9.35093
H          0.53505        0.60731       -9.38745
H         -0.21636       -1.71768       -8.77975
H          1.50857       -2.25841       -8.74858
H          0.02698       -1.13781      -11.21011
H          0.38302       -2.88329      -10.88960
H          2.84063       -2.36870      -10.85309
H          2.47961       -0.62372      -11.16120
H          1.76802       -2.96896      -13.04298
H          3.14171       -1.81341      -13.26097
H          0.14274       -1.06923      -13.17971
H          1.18226       -1.16525      -14.65184
H          1.51558        0.08998      -13.39811
H          1.25529        2.09541       -3.87821
H          2.84605        2.60406       -1.31355
H          2.62513        3.66848       -2.79400
47

C         -1.47705        1.94288       -0.36208
C         -0.54966        1.04350       -0.01308
C          0.18880        0.21563       -0.98719
C          0.06985        0.21123       -2.37413
C          0.91670       -0.72003       -3.01762
C          0.95780       -0.91306       -4.51594
C          2.32040       -0.64960       -5.18690
C          2.28090       -0.84950       -6.71580
C          1.28950        0.09890       -7.40810
C          1.64485        1.57279       -7.18842
C          0.60669        2.45756       -7.89009
C          0.91070        3.94905       -7.72579
C         -0.16677        4.78415       -8.43081
C         -1.55463        4.52689       -7.83880
C         -1.59115        4.90154       -6.35950
C          1.70714       -1.45266       -2.10345
C          2.71596       -2.52996       -2.30405
C          3.78583       -2.78875       -1.54218
S          1.33918       -0.91788       -0.55250
H         -1.98636        2.51318        0.40790
H         -1.74851        2.11918       -1.39528
H         -0.33108        0.91018        1.04199
H         -0.61394        0.85997       -2.90034
H          0.21398       -0.20927       -4.93493
H          0.67415       -1.96426       -4.73770
H          3.06445       -1.36489       -4.77243
H          2.65930        0.38564       -4.96564
H          2.01580       -1.90510       -6.94470
H          3.29970       -0.65270       -7.11580
H          0.26679       -0.09519       -7.01647
H          1.30014       -0.08372       -8.50134
H          2.65110        1.77632       -7.61687
H          1.66366        1.80019       -6.10001
H         -0.40134        2.24040       -7.47168
H          0.60164        2.21344       -8.97570
H          1.90317        4.17413       -8.17486
H          0.93751        4.20691       -6.64429
H         -0.17696        4.52950       -9.51384
H          0.07971        5.86387       -8.32063
H         -1.81198        3.45008       -7.94285
H         -2.31222        5.13079       -8.38424
H         -0.85380        4.29615       -5.78989
H         -2.60365        4.70811       -5.94897
H         -1.35325        5.97962       -6.22880
H          2.56969       -3.17196       -3.16790
H          4.05502       -2.23092       -0.66292
H          4.44131       -3.60895       -1.81417
47

C          3.00232       -5.68921       -8.28420
C          2.81199       -6.03411       -7.00531
C          2.85725       -5.07129       -5.88704
C          3.09265       -3.70049       -5.94397
C          3.08520       -3.06618       -4.68061
C          3.32606       -1.58658       -4.48906
C          2.32040       -0.64960       -5.18690
C          2.28090       -0.84950       -6.71580
C          1.28950        0.09890       -7.40810
C          1.24165       -0.11575       -8.92419
C          0.79126       -1.55154       -9.22183
C          0.73747       -1.84224      -10.72402
C          2.13098       -1.66506      -11.34219
C          3.14803       -2.62566      -10.72115
C          2.73449       -4.07678      -10.95192
C          2.83922       -3.97120       -3.62340
C          2.75289       -3.77627       -2.14926
C          2.00980       -4.47552       -1.28272
S          2.63213       -5.50217       -4.28678
H          2.96157       -6.45094       -9.05595
H          3.20683       -4.66832       -8.58123
H          2.61928       -7.07749       -6.77519
H          3.26927       -3.17973       -6.87292
H          4.33647       -1.38692       -4.89325
H          3.28677       -1.36728       -3.40047
H          2.62188        0.40312       -4.99216
H          1.30101       -0.81080       -4.77412
H          2.01580       -1.90510       -6.94470
H          3.29970       -0.65270       -7.11580
H          1.58262        1.15031       -7.19456
H          0.26776       -0.07950       -7.01715
H          2.25596        0.04731       -9.35093
H          0.53505        0.60731       -9.38745
H         -0.21636       -1.71768       -8.77975
H          1.50857       -2.25841       -8.74858
H          0.02698       -1.13781      -11.21011
H          0.38302       -2.88329      -10.88960
H          2.47134       -0.61771      -11.18369
H          2.07090       -1.85879      -12.43651
H          3.21649       -2.44163       -9.62661
H          4.14841       -2.45733      -11.17617
H          1.74394       -4.27397      -10.48874
H          3.48286       -4.75674      -10.49507
H          2.67479       -4.29218      -12.04095
H          3.35518       -2.97367       -1.73350
H          1.36349       -5.29063       -1.55587
H          2.04326       -4.21661       -0.23001
