23

C          2.08548        0.70322        1.04443
C          2.46980        0.00830       -0.03490
C          3.14500       -1.29850       -0.00200
C          2.43940       -2.50770       -0.01670
C          3.11430       -3.73480       -0.01240
C          2.35660       -5.03000       -0.01220
C          4.51630       -3.74750       -0.00980
C          5.24850       -2.55420       -0.02670
C          6.71710       -2.52210        0.01140
C          7.54620       -2.53063       -1.03813
F          7.08603       -2.56048       -2.30627
F          8.87825       -2.49248       -0.81983
C          4.54820       -1.33670       -0.01430
H          1.59455        1.66488        0.92962
H          2.25383        0.35550        2.05787
H          2.29084        0.43007       -1.02134
H          1.35200       -2.50160       -0.03910
H          1.27440       -4.86300       -0.00920
H          2.60820       -5.61330        0.87930
H          2.60430       -5.61140       -0.90610
H          5.02890       -4.70740        0.00870
H          7.16607       -2.47206        1.00039
H          5.10320       -0.40010       -0.01340
23

C          2.15988        0.68646       -1.14829
C          2.46980        0.00830       -0.03490
C          3.14500       -1.29850       -0.00200
C          2.43940       -2.50770       -0.01670
C          3.11430       -3.73480       -0.01240
C          2.35660       -5.03000       -0.01220
C          4.51630       -3.74750       -0.00980
C          5.24850       -2.55420       -0.02670
C          6.71710       -2.52210        0.01140
C          7.48925       -2.46538        1.10207
F          6.96278       -2.44163        2.34429
F          8.83127       -2.44734        0.95326
C          4.54820       -1.33670       -0.01430
H          1.65672        1.64636       -1.08193
H          2.37770        0.31374       -2.14324
H          2.19863        0.43154        0.92963
H          1.35200       -2.50160       -0.03910
H          1.27440       -4.86300       -0.00920
H          2.60820       -5.61330        0.87930
H          2.60430       -5.61140       -0.90610
H          5.02890       -4.70740        0.00870
H          7.21873       -2.56340       -0.95236
H          5.10320       -0.40010       -0.01340
23

C          2.08548        0.70322        1.04443
C          2.46980        0.00830       -0.03490
C          3.14500       -1.29850       -0.00200
C          2.43940       -2.50770       -0.01670
C          3.11430       -3.73480       -0.01240
C          2.35660       -5.03000       -0.01220
C          4.51630       -3.74750       -0.00980
C          5.24850       -2.55420       -0.02670
C          6.71710       -2.52210        0.01140
C          7.48925       -2.46538        1.10207
F          6.96278       -2.44163        2.34429
F          8.83127       -2.44734        0.95326
C          4.54820       -1.33670       -0.01430
H          1.59455        1.66488        0.92962
H          2.25383        0.35550        2.05787
H          2.29084        0.43007       -1.02134
H          1.35200       -2.50160       -0.03910
H          1.27440       -4.86300       -0.00920
H          2.60820       -5.61330        0.87930
H          2.60430       -5.61140       -0.90610
H          5.02890       -4.70740        0.00870
H          7.21873       -2.56340       -0.95236
H          5.10320       -0.40010       -0.01340
23

C          2.15988        0.68646       -1.14829
C          2.46980        0.00830       -0.03490
C          3.14500       -1.29850       -0.00200
C          2.43940       -2.50770       -0.01670
C          3.11430       -3.73480       -0.01240
C          2.35660       -5.03000       -0.01220
C          4.51630       -3.74750       -0.00980
C          5.24850       -2.55420       -0.02670
C          6.71710       -2.52210        0.01140
C          7.54620       -2.53063       -1.03813
F          7.08603       -2.56048       -2.30627
F          8.87825       -2.49248       -0.81983
C          4.54820       -1.33670       -0.01430
H          1.65672        1.64636       -1.08193
H          2.37770        0.31374       -2.14324
H          2.19863        0.43154        0.92963
H          1.35200       -2.50160       -0.03910
H          1.27440       -4.86300       -0.00920
H          2.60820       -5.61330        0.87930
H          2.60430       -5.61140       -0.90610
H          5.02890       -4.70740        0.00870
H          7.16607       -2.47206        1.00039
H          5.10320       -0.40010       -0.01340
23

C          2.93837        1.13087        0.52712
C          2.46980        0.00830       -0.03490
C          3.14500       -1.29850       -0.00200
C          2.43940       -2.50770       -0.01670
C          3.11430       -3.73480       -0.01240
C          2.35660       -5.03000       -0.01220
C          4.51630       -3.74750       -0.00980
C          5.24850       -2.55420       -0.02670
C          6.71710       -2.52210        0.01140
C          7.48925       -2.46538        1.10207
F          6.96278       -2.44163        2.34429
F          8.83127       -2.44734        0.95326
C          4.54820       -1.33670       -0.01430
H          2.37550        2.05636        0.45211
H          3.88338        1.17228        1.05772
H          1.52568        0.04600       -0.57360
H          1.35200       -2.50160       -0.03910
H          1.27440       -4.86300       -0.00920
H          2.60820       -5.61330        0.87930
H          2.60430       -5.61140       -0.90610
H          5.02890       -4.70740        0.00870
H          7.21873       -2.56340       -0.95236
H          5.10320       -0.40010       -0.01340
23

C          2.97597        1.12240       -0.58094
C          2.46980        0.00830       -0.03490
C          3.14500       -1.29850       -0.00200
C          2.43940       -2.50770       -0.01670
C          3.11430       -3.73480       -0.01240
C          2.35660       -5.03000       -0.01220
C          4.51630       -3.74750       -0.00980
C          5.24850       -2.55420       -0.02670
C          6.71710       -2.52210        0.01140
C          7.48925       -2.46538        1.10207
F          6.96278       -2.44163        2.34429
F          8.83127       -2.44734        0.95326
C          4.54820       -1.33670       -0.01430
H          2.40691        2.04700       -0.56440
H          3.94597        1.15118       -1.06524
H          1.47908        0.04674        0.41229
H          1.35200       -2.50160       -0.03910
H          1.27440       -4.86300       -0.00920
H          2.60820       -5.61330        0.87930
H          2.60430       -5.61140       -0.90610
H          5.02890       -4.70740        0.00870
H          7.21873       -2.56340       -0.95236
H          5.10320       -0.40010       -0.01340
23

C          2.08548        0.70322        1.04443
C          2.46980        0.00830       -0.03490
C          3.14500       -1.29850       -0.00200
C          2.43940       -2.50770       -0.01670
C          3.11430       -3.73480       -0.01240
C          2.35660       -5.03000       -0.01220
C          4.51630       -3.74750       -0.00980
C          5.24850       -2.55420       -0.02670
C          6.71710       -2.52210        0.01140
C          7.51281       -1.59754       -0.53726
F          7.01335       -0.53859       -1.20808
F          8.85054       -1.72165       -0.40105
C          4.54820       -1.33670       -0.01430
H          1.59455        1.66488        0.92962
H          2.25383        0.35550        2.05787
H          2.29084        0.43007       -1.02134
H          1.35200       -2.50160       -0.03910
H          1.27440       -4.86300       -0.00920
H          2.60820       -5.61330        0.87930
H          2.60430       -5.61140       -0.90610
H          5.02890       -4.70740        0.00870
H          7.19635       -3.33130        0.55701
H          5.10320       -0.40010       -0.01340
23

C          2.15988        0.68646       -1.14829
C          2.46980        0.00830       -0.03490
C          3.14500       -1.29850       -0.00200
C          2.43940       -2.50770       -0.01670
C          3.11430       -3.73480       -0.01240
C          2.35660       -5.03000       -0.01220
C          4.51630       -3.74750       -0.00980
C          5.24850       -2.55420       -0.02670
C          6.71710       -2.52210        0.01140
C          7.51281       -1.59754       -0.53726
F          7.01335       -0.53859       -1.20808
F          8.85054       -1.72165       -0.40105
C          4.54820       -1.33670       -0.01430
H          1.65672        1.64636       -1.08193
H          2.37770        0.31374       -2.14324
H          2.19863        0.43154        0.92963
H          1.35200       -2.50160       -0.03910
H          1.27440       -4.86300       -0.00920
H          2.60820       -5.61330        0.87930
H          2.60430       -5.61140       -0.90610
H          5.02890       -4.70740        0.00870
H          7.19635       -3.33130        0.55701
H          5.10320       -0.40010       -0.01340
23

C          2.97597        1.12240       -0.58094
C          2.46980        0.00830       -0.03490
C          3.14500       -1.29850       -0.00200
C          2.43940       -2.50770       -0.01670
C          3.11430       -3.73480       -0.01240
C          2.35660       -5.03000       -0.01220
C          4.51630       -3.74750       -0.00980
C          5.24850       -2.55420       -0.02670
C          6.71710       -2.52210        0.01140
C          7.48404       -1.56457        0.54426
F          6.95106       -0.47853        1.14201
F          8.82680       -1.69884        0.49496
C          4.54820       -1.33670       -0.01430
H          2.40691        2.04700       -0.56440
H          3.94597        1.15118       -1.06524
H          1.47908        0.04674        0.41229
H          1.35200       -2.50160       -0.03910
H          1.27440       -4.86300       -0.00920
H          2.60820       -5.61330        0.87930
H          2.60430       -5.61140       -0.90610
H          5.02890       -4.70740        0.00870
H          7.22296       -3.37746       -0.42979
H          5.10320       -0.40010       -0.01340
23

C          2.08548        0.70322        1.04443
C          2.46980        0.00830       -0.03490
C          3.14500       -1.29850       -0.00200
C          2.43940       -2.50770       -0.01670
C          3.11430       -3.73480       -0.01240
C          2.35660       -5.03000       -0.01220
C          4.51630       -3.74750       -0.00980
C          5.24850       -2.55420       -0.02670
C          6.71710       -2.52210        0.01140
C          7.52336       -3.41859        0.59040
F          7.03703       -4.50712        1.22240
F          8.85958       -3.23480        0.52545
C          4.54820       -1.33670       -0.01430
H          1.59455        1.66488        0.92962
H          2.25383        0.35550        2.05787
H          2.29084        0.43007       -1.02134
H          1.35200       -2.50160       -0.03910
H          1.27440       -4.86300       -0.00920
H          2.60820       -5.61330        0.87930
H          2.60430       -5.61140       -0.90610
H          5.02890       -4.70740        0.00870
H          7.18779       -1.68562       -0.49942
H          5.10320       -0.40010       -0.01340
