 xtb: 6.5.0 (unknown)
          08112216343D

 23  0  0     0  0            999 V2000
   -3.4733    2.4148    0.3653 c   0  0  0  0  0  0  0  0  0  0  0  0
   -2.7230    1.8004   -0.5300 c   0  0  0  0  0  0  0  0  0  0  0  0
   -1.8075    0.6877   -0.2035 c   0  0  0  0  0  0  0  0  0  0  0  0
   -2.2555   -0.6266   -0.2594 c   0  0  0  0  0  0  0  0  0  0  0  0
   -1.4111   -1.6841    0.0417 c   0  0  0  0  0  0  0  0  0  0  0  0
   -1.8913   -3.1021   -0.0177 c   0  0  0  0  0  0  0  0  0  0  0  0
   -0.0972   -1.4112    0.4028 c   0  0  0  0  0  0  0  0  0  0  0  0
    0.3646   -0.1050    0.4620 c   0  0  0  0  0  0  0  0  0  0  0  0
    1.7617    0.1716    0.8619 c   0  0  0  0  0  0  0  0  0  0  0  0
    2.7561    0.2371    0.0023 c   0  0  0  0  0  0  0  0  0  0  0  0
    2.6605    0.0689   -1.3119 f   0  0  0  0  0  0  0  0  0  0  0  0
    4.0252    0.4825    0.3248 f   0  0  0  0  0  0  0  0  0  0  0  0
   -0.4929    0.9442    0.1590 c   0  0  0  0  0  0  0  0  0  0  0  0
   -4.1345    3.2224    0.1012 h   0  0  0  0  0  0  0  0  0  0  0  0
   -3.4536    2.1304    1.4046 h   0  0  0  0  0  0  0  0  0  0  0  0
   -2.7501    2.0934   -1.5728 h   0  0  0  0  0  0  0  0  0  0  0  0
   -3.2809   -0.8201   -0.5408 h   0  0  0  0  0  0  0  0  0  0  0  0
   -2.9413   -3.1466   -0.2944 h   0  0  0  0  0  0  0  0  0  0  0  0
   -1.7642   -3.5863    0.9496 h   0  0  0  0  0  0  0  0  0  0  0  0
   -1.3140   -3.6656   -0.7493 h   0  0  0  0  0  0  0  0  0  0  0  0
    0.5733   -2.2251    0.6380 h   0  0  0  0  0  0  0  0  0  0  0  0
    1.9796    0.3284    1.9074 h   0  0  0  0  0  0  0  0  0  0  0  0
   -0.1367    1.9628    0.2044 h   0  0  0  0  0  0  0  0  0  0  0  0
M  END
