 xtb: 6.5.0 (unknown)
          08112218563D

 17  0  0     0  0            999 V2000
    1.2603   -2.8314   -0.4360 C   0  0  0  0  0  0  0  0  0  0  0  0
    1.9081   -1.8439    0.1679 C   0  0  0  0  0  0  0  0  0  0  0  0
    1.5200   -0.4406    0.1387 C   0  0  0  0  0  0  0  0  0  0  0  0
    2.4400    0.5649    0.0782 C   0  0  0  0  0  0  0  0  0  0  0  0
    1.7260    2.1214   -0.0215 S   0  0  0  0  0  0  0  0  0  0  0  0
    0.1584    1.4387    0.0461 C   0  0  0  0  0  0  0  0  0  0  0  0
    0.1782    0.0737    0.1342 C   0  0  0  0  0  0  0  0  0  0  0  0
   -0.9912   -0.7644    0.3017 C   0  0  0  0  0  0  0  0  0  0  0  0
   -2.2410   -0.4237    0.0287 C   0  0  0  0  0  0  0  0  0  0  0  0
   -2.6630    0.7290   -0.4830 F   0  0  0  0  0  0  0  0  0  0  0  0
   -3.2863   -1.2252    0.2245 F   0  0  0  0  0  0  0  0  0  0  0  0
    1.6165   -3.8461   -0.3863 H   0  0  0  0  0  0  0  0  0  0  0  0
    0.3733   -2.6651   -1.0235 H   0  0  0  0  0  0  0  0  0  0  0  0
    2.8313   -2.0488    0.6953 H   0  0  0  0  0  0  0  0  0  0  0  0
    3.5077    0.4710    0.0573 H   0  0  0  0  0  0  0  0  0  0  0  0
   -0.6953    2.0856    0.0407 H   0  0  0  0  0  0  0  0  0  0  0  0
   -0.8332   -1.7554    0.6987 H   0  0  0  0  0  0  0  0  0  0  0  0
M  END
