
  xtb     02032211353D
 xtb: 6.4.1 (23d549d)
 28 28  0     0  0            999 V2000
    2.4064   -2.9307   -0.0885 C   0  0  0  0  0  0  0  0  0  0  0  0
    2.3791   -1.6091    0.0465 C   0  0  0  0  0  0  0  0  0  0  0  0
    1.2039   -0.7519    0.0238 C   0  0  0  0  0  0  0  0  0  0  0  0
   -0.0933   -1.2579    0.0321 C   0  0  0  0  0  0  0  0  0  0  0  0
   -1.2164   -0.4460    0.0158 C   0  0  0  0  0  0  0  0  0  0  0  0
   -2.4893   -0.9418    0.0254 O   0  0  0  0  0  0  0  0  0  0  0  0
   -2.6787   -2.3341    0.0460 C   0  0  0  0  0  0  0  0  0  0  0  0
   -1.0534    0.9538   -0.0088 C   0  0  0  0  0  0  0  0  0  0  0  0
   -2.1350    1.9265   -0.0271 C   0  0  0  0  0  0  0  0  0  0  0  0
   -3.4465    1.7110   -0.0267 C   0  0  0  0  0  0  0  0  0  0  0  0
    0.2499    1.4579   -0.0140 C   0  0  0  0  0  0  0  0  0  0  0  0
    1.3698    0.6463    0.0032 C   0  0  0  0  0  0  0  0  0  0  0  0
    2.6552    1.1138   -0.0043 O   0  0  0  0  0  0  0  0  0  0  0  0
    2.8683    2.5019   -0.0211 C   0  0  0  0  0  0  0  0  0  0  0  0
    3.3353   -3.4736   -0.0561 H   0  0  0  0  0  0  0  0  0  0  0  0
    1.5227   -3.5266   -0.2427 H   0  0  0  0  0  0  0  0  0  0  0  0
    3.3092   -1.0741    0.1777 H   0  0  0  0  0  0  0  0  0  0  0  0
   -0.2097   -2.3278    0.0616 H   0  0  0  0  0  0  0  0  0  0  0  0
   -3.7583   -2.4816    0.0467 H   0  0  0  0  0  0  0  0  0  0  0  0
   -2.2548   -2.7883    0.9478 H   0  0  0  0  0  0  0  0  0  0  0  0
   -2.2522   -2.8146   -0.8408 H   0  0  0  0  0  0  0  0  0  0  0  0
   -1.7872    2.9540   -0.0434 H   0  0  0  0  0  0  0  0  0  0  0  0
   -3.8727    0.7267   -0.0115 H   0  0  0  0  0  0  0  0  0  0  0  0
   -4.1367    2.5388   -0.0418 H   0  0  0  0  0  0  0  0  0  0  0  0
    0.3639    2.5309   -0.0317 H   0  0  0  0  0  0  0  0  0  0  0  0
    2.4463    2.9871    0.8654 H   0  0  0  0  0  0  0  0  0  0  0  0
    2.4519    2.9640   -0.9224 H   0  0  0  0  0  0  0  0  0  0  0  0
    3.9498    2.6321   -0.0196 H   0  0  0  0  0  0  0  0  0  0  0  0
  1  2  2  0  0  0  0
  2  3  1  0  0  0  0
  3  4  4  0  0  0  0
  4  5  4  0  0  0  0
  5  6  1  0  0  0  0
  6  7  1  0  0  0  0
  5  8  4  0  0  0  0
  8  9  1  0  0  0  0
  9 10  2  0  0  0  0
  8 11  4  0  0  0  0
  3 12  4  0  0  0  0
 11 12  4  0  0  0  0
 12 13  1  0  0  0  0
 13 14  1  0  0  0  0
  1 15  1  0  0  0  0
  1 16  1  0  0  0  0
  2 17  1  0  0  0  0
  4 18  1  0  0  0  0
  7 19  1  0  0  0  0
  7 20  1  0  0  0  0
  7 21  1  0  0  0  0
  9 22  1  0  0  0  0
 10 23  1  0  0  0  0
 10 24  1  0  0  0  0
 11 25  1  0  0  0  0
 14 26  1  0  0  0  0
 14 27  1  0  0  0  0
 14 28  1  0  0  0  0
M  END
