
  xtb     02032211353D
 xtb: 6.4.1 (23d549d)
 30 31  0     0  0            999 V2000
    5.9253    0.6468    0.4514 C   0  0  0  0  0  0  0  0  0  0  0  0
    5.0437   -0.1245   -0.1763 C   0  0  0  0  0  0  0  0  0  0  0  0
    3.5904   -0.0508   -0.0904 C   0  0  0  0  0  0  0  0  0  0  0  0
    2.8653    0.9829    0.5127 C   0  0  0  0  0  0  0  0  0  0  0  0
    3.4938    2.0201    1.0781 F   0  0  0  0  0  0  0  0  0  0  0  0
    1.4775    0.9809    0.5441 C   0  0  0  0  0  0  0  0  0  0  0  0
    0.8373    1.9819    1.1579 F   0  0  0  0  0  0  0  0  0  0  0  0
    0.7367   -0.0543   -0.0200 C   0  0  0  0  0  0  0  0  0  0  0  0
   -0.7366   -0.0544    0.0199 C   0  0  0  0  0  0  0  0  0  0  0  0
   -1.4776    0.9807   -0.5441 C   0  0  0  0  0  0  0  0  0  0  0  0
   -0.8376    1.9820   -1.1577 F   0  0  0  0  0  0  0  0  0  0  0  0
   -2.8654    0.9826   -0.5128 C   0  0  0  0  0  0  0  0  0  0  0  0
   -3.4938    2.0196   -1.0786 F   0  0  0  0  0  0  0  0  0  0  0  0
   -3.5905   -0.0515    0.0900 C   0  0  0  0  0  0  0  0  0  0  0  0
   -5.0437   -0.1258    0.1754 C   0  0  0  0  0  0  0  0  0  0  0  0
   -5.9258    0.6495   -0.4466 C   0  0  0  0  0  0  0  0  0  0  0  0
   -2.8297   -1.0817    0.6604 C   0  0  0  0  0  0  0  0  0  0  0  0
   -3.4576   -2.0991    1.2644 F   0  0  0  0  0  0  0  0  0  0  0  0
   -1.4445   -1.0905    0.6251 C   0  0  0  0  0  0  0  0  0  0  0  0
   -0.7736   -2.0895    1.2076 F   0  0  0  0  0  0  0  0  0  0  0  0
    1.4446   -1.0902   -0.6256 C   0  0  0  0  0  0  0  0  0  0  0  0
    0.7738   -2.0891   -1.2082 F   0  0  0  0  0  0  0  0  0  0  0  0
    2.8298   -1.0810   -0.6611 C   0  0  0  0  0  0  0  0  0  0  0  0
    3.4579   -2.0981   -1.2654 F   0  0  0  0  0  0  0  0  0  0  0  0
    6.9802    0.4880    0.3078 H   0  0  0  0  0  0  0  0  0  0  0  0
    5.6526    1.4425    1.1203 H   0  0  0  0  0  0  0  0  0  0  0  0
    5.4004   -0.9180   -0.8192 H   0  0  0  0  0  0  0  0  0  0  0  0
   -5.4002   -0.9234    0.8134 H   0  0  0  0  0  0  0  0  0  0  0  0
   -5.6537    1.4500   -1.1101 H   0  0  0  0  0  0  0  0  0  0  0  0
   -6.9806    0.4893   -0.3036 H   0  0  0  0  0  0  0  0  0  0  0  0
  1  2  2  0  0  0  0
  2  3  1  0  0  0  0
  3  4  4  0  0  0  0
  4  5  1  0  0  0  0
  4  6  4  0  0  0  0
  6  7  1  0  0  0  0
  6  8  4  0  0  0  0
  8  9  1  0  0  0  0
  9 10  4  0  0  0  0
 10 11  1  0  0  0  0
 10 12  4  0  0  0  0
 12 13  1  0  0  0  0
 12 14  4  0  0  0  0
 14 15  1  0  0  0  0
 15 16  2  0  0  0  0
 14 17  4  0  0  0  0
 17 18  1  0  0  0  0
  9 19  4  0  0  0  0
 17 19  4  0  0  0  0
 19 20  1  0  0  0  0
  8 21  4  0  0  0  0
 21 22  1  0  0  0  0
  3 23  4  0  0  0  0
 21 23  4  0  0  0  0
 23 24  1  0  0  0  0
  1 25  1  0  0  0  0
  1 26  1  0  0  0  0
  2 27  1  0  0  0  0
 15 28  1  0  0  0  0
 16 29  1  0  0  0  0
 16 30  1  0  0  0  0
M  END
