
  xtb     02032211363D
 xtb: 6.4.1 (23d549d)
 26 26  0     0  0            999 V2000
    3.8249    2.6735   -0.2796 C   0  0  0  0  0  0  0  0  0  0  0  0
    3.5875    1.3742   -0.1283 C   0  0  0  0  0  0  0  0  0  0  0  0
    2.2761    0.7826   -0.0643 C   0  0  0  0  0  0  0  0  0  0  0  0
    1.0125    1.3109   -0.1256 C   0  0  0  0  0  0  0  0  0  0  0  0
    0.1050    0.2292    0.0039 C   0  0  0  0  0  0  0  0  0  0  0  0
   -1.3418    0.4820    0.0035 C   0  0  0  0  0  0  0  0  0  0  0  0
   -1.8245    1.5099   -0.4079 O   0  0  0  0  0  0  0  0  0  0  0  0
   -2.0680   -0.5060    0.5453 O   0  0  0  0  0  0  0  0  0  0  0  0
   -3.4812   -0.3088    0.5980 C   0  0  0  0  0  0  0  0  0  0  0  0
   -4.1470   -0.6688   -0.7229 C   0  0  0  0  0  0  0  0  0  0  0  0
    0.8874   -0.9163    0.1254 C   0  0  0  0  0  0  0  0  0  0  0  0
    0.6731   -2.3375    0.2286 C   0  0  0  0  0  0  0  0  0  0  0  0
   -0.4755   -3.0041    0.1680 C   0  0  0  0  0  0  0  0  0  0  0  0
    2.1883   -0.5593    0.0842 O   0  0  0  0  0  0  0  0  0  0  0  0
    4.8283    3.0581   -0.3213 H   0  0  0  0  0  0  0  0  0  0  0  0
    3.0267    3.3895   -0.3669 H   0  0  0  0  0  0  0  0  0  0  0  0
    4.4017    0.6672   -0.0431 H   0  0  0  0  0  0  0  0  0  0  0  0
    0.7314    2.3367   -0.2401 H   0  0  0  0  0  0  0  0  0  0  0  0
   -3.6832    0.7380    0.8473 H   0  0  0  0  0  0  0  0  0  0  0  0
   -3.8263   -0.9581    1.4056 H   0  0  0  0  0  0  0  0  0  0  0  0
   -3.7878   -0.0095   -1.5092 H   0  0  0  0  0  0  0  0  0  0  0  0
   -5.2231   -0.5527   -0.6308 H   0  0  0  0  0  0  0  0  0  0  0  0
   -3.9232   -1.6980   -0.9944 H   0  0  0  0  0  0  0  0  0  0  0  0
    1.6049   -2.8786    0.3438 H   0  0  0  0  0  0  0  0  0  0  0  0
   -1.4195   -2.5077    0.0524 H   0  0  0  0  0  0  0  0  0  0  0  0
   -0.4896   -4.0777    0.2420 H   0  0  0  0  0  0  0  0  0  0  0  0
  1  2  2  0  0  0  0
  2  3  1  0  0  0  0
  3  4  2  0  0  0  0
  4  5  4  0  0  0  0
  5  6  1  0  0  0  0
  6  7  2  0  0  0  0
  6  8  1  0  0  0  0
  8  9  1  0  0  0  0
  9 10  1  0  0  0  0
  5 11  4  0  0  0  0
 11 12  1  0  0  0  0
 12 13  2  0  0  0  0
  3 14  1  0  0  0  0
 11 14  1  0  0  0  0
  1 15  1  0  0  0  0
  1 16  1  0  0  0  0
  2 17  1  0  0  0  0
  4 18  1  0  0  0  0
  9 19  1  0  0  0  0
  9 20  1  0  0  0  0
 10 21  1  0  0  0  0
 10 22  1  0  0  0  0
 10 23  1  0  0  0  0
 12 24  1  0  0  0  0
 13 25  1  0  0  0  0
 13 26  1  0  0  0  0
M  END
