
  xtb     02012213533D
 xtb: 6.4.1 (23d549d)
 29 30  0     0  0            999 V2000
    2.5043    1.1856    0.0041 c   0  0  0  0  0  0  0  0  0  0  0  0
    1.2252    0.4043   -0.0291 c   0  0  0  0  0  0  0  0  0  0  0  0
   -0.0071    1.0418   -0.0133 c   0  0  0  0  0  0  0  0  0  0  0  0
   -1.1916    0.3181   -0.0321 c   0  0  0  0  0  0  0  0  0  0  0  0
   -2.5220    1.0078    0.0028 c   0  0  0  0  0  0  0  0  0  0  0  0
   -1.1337   -1.0664   -0.0875 c   0  0  0  0  0  0  0  0  0  0  0  0
    0.0933   -1.7169   -0.1145 c   0  0  0  0  0  0  0  0  0  0  0  0
    0.0708   -3.0896   -0.0992 o   0  0  0  0  0  0  0  0  0  0  0  0
    1.0455   -3.8075   -0.7366 c   0  0  0  0  0  0  0  0  0  0  0  0
    1.3452   -5.0630   -0.2149 c   0  0  0  0  0  0  0  0  0  0  0  0
    2.2782   -5.8666   -0.8408 c   0  0  0  0  0  0  0  0  0  0  0  0
    2.9217   -5.4295   -1.9869 c   0  0  0  0  0  0  0  0  0  0  0  0
    2.6118   -4.1874   -2.5138 c   0  0  0  0  0  0  0  0  0  0  0  0
    1.6751   -3.3764   -1.9000 c   0  0  0  0  0  0  0  0  0  0  0  0
    1.2708   -0.9819   -0.0721 c   0  0  0  0  0  0  0  0  0  0  0  0
    2.3080    2.2535    0.0490 h   0  0  0  0  0  0  0  0  0  0  0  0
    3.0981    0.9780   -0.8854 h   0  0  0  0  0  0  0  0  0  0  0  0
    3.0983    0.9035    0.8723 h   0  0  0  0  0  0  0  0  0  0  0  0
   -0.0450    2.1213    0.0212 h   0  0  0  0  0  0  0  0  0  0  0  0
   -2.4010    2.0875    0.0334 h   0  0  0  0  0  0  0  0  0  0  0  0
   -3.0853    0.6956    0.8812 h   0  0  0  0  0  0  0  0  0  0  0  0
   -3.1083    0.7473   -0.8772 h   0  0  0  0  0  0  0  0  0  0  0  0
   -2.0373   -1.6563   -0.1051 h   0  0  0  0  0  0  0  0  0  0  0  0
    0.8346   -5.3892    0.6779 h   0  0  0  0  0  0  0  0  0  0  0  0
    2.5066   -6.8384   -0.4289 h   0  0  0  0  0  0  0  0  0  0  0  0
    3.6555   -6.0562   -2.4708 h   0  0  0  0  0  0  0  0  0  0  0  0
    3.0986   -3.8450   -3.4153 h   0  0  0  0  0  0  0  0  0  0  0  0
    1.4234   -2.4146   -2.3227 h   0  0  0  0  0  0  0  0  0  0  0  0
    2.2242   -1.4907   -0.0640 h   0  0  0  0  0  0  0  0  0  0  0  0
  1  2  1  0  0  0  0
  2  3  4  0  0  0  0
  3  4  4  0  0  0  0
  4  5  1  0  0  0  0
  4  6  4  0  0  0  0
  6  7  4  0  0  0  0
  7  8  1  0  0  0  0
  8  9  1  0  0  0  0
  9 10  4  0  0  0  0
 10 11  4  0  0  0  0
 11 12  4  0  0  0  0
 12 13  4  0  0  0  0
  9 14  4  0  0  0  0
 13 14  4  0  0  0  0
  2 15  4  0  0  0  0
  7 15  4  0  0  0  0
  1 16  1  0  0  0  0
  1 17  1  0  0  0  0
  1 18  1  0  0  0  0
  3 19  1  0  0  0  0
  5 20  1  0  0  0  0
  5 21  1  0  0  0  0
  5 22  1  0  0  0  0
  6 23  1  0  0  0  0
 10 24  1  0  0  0  0
 11 25  1  0  0  0  0
 12 26  1  0  0  0  0
 13 27  1  0  0  0  0
 14 28  1  0  0  0  0
 15 29  1  0  0  0  0
M  END
