44

C          2.52470        0.02266        0.01978
C          1.02470        0.01346       -0.00007
C          0.31943       -1.04172       -0.59105
C         -1.07797       -1.03595       -0.60787
C         -1.81060        0.02660       -0.03360
N         -3.25950        0.03430       -0.05950
C         -3.98860       -1.21230       -0.05880
C         -3.31774       -2.45051       -0.03325
C         -4.02741       -3.65549       -0.01104
C         -5.43681       -3.65990       -0.02677
C         -6.27387       -4.89719       -0.00126
C         -7.50037       -5.03583        0.53069
F         -8.17229       -4.01908        1.12501
F         -8.11725       -6.24396        0.45071
C         -6.10580       -2.42595       -0.06817
C         -5.39652       -1.22323       -0.07427
C         -3.99190        1.28110       -0.07160
C         -3.45207        2.44741       -0.65697
C         -4.16513        3.64948       -0.65331
C         -5.43385        3.72052       -0.06349
C         -6.20482        5.00723       -0.04361
C         -5.98515        2.57194        0.51544
C         -5.27664        1.36851        0.51008
C         -1.08113        1.08089        0.56397
C          0.31617        1.07185        0.57844
H          2.94468       -0.87997       -0.47312
H          2.88460        0.04968        1.06983
H          2.89850        0.92066       -0.51574
H          0.84919       -1.86998       -1.04593
H         -1.58201       -1.86328       -1.08952
H         -2.23613       -2.48999       -0.00893
H         -3.44852       -4.56190        0.01231
H         -5.85617       -5.78158       -0.47612
H         -7.18820       -2.38870       -0.08651
H         -5.95471       -0.29641       -0.10757
H         -2.48202        2.43157       -1.13346
H         -3.72323        4.52638       -1.11191
H         -5.64256        5.82756       -0.53801
H         -6.40583        5.30366        1.00764
H         -7.17109        4.87239       -0.57385
H         -6.96408        2.61079        0.97727
H         -5.73264        0.50781        0.98252
H         -1.58509        1.91128        1.03698
H          0.84712        1.89312        1.04420
44

C          2.52470        0.02266        0.01978
C          1.02470        0.01346       -0.00007
C          0.31943       -1.04172       -0.59105
C         -1.07797       -1.03595       -0.60787
C         -1.81060        0.02660       -0.03360
N         -3.25950        0.03430       -0.05950
C         -3.98860       -1.21230       -0.05880
C         -3.31774       -2.45051       -0.03325
C         -4.02741       -3.65549       -0.01104
C         -5.43681       -3.65990       -0.02677
C         -6.27387       -4.89719       -0.00126
C         -5.84061       -6.16884        0.03951
F         -4.52797       -6.50609        0.08121
F         -6.75572       -7.17298        0.06741
C         -6.10580       -2.42595       -0.06817
C         -5.39652       -1.22323       -0.07427
C         -3.99190        1.28110       -0.07160
C         -3.45207        2.44741       -0.65697
C         -4.16513        3.64948       -0.65331
C         -5.43385        3.72052       -0.06349
C         -6.20482        5.00723       -0.04361
C         -5.98515        2.57194        0.51544
C         -5.27664        1.36851        0.51008
C         -1.08113        1.08089        0.56397
C          0.31617        1.07185        0.57844
H          2.94468       -0.87997       -0.47312
H          2.88460        0.04968        1.06983
H          2.89850        0.92066       -0.51574
H          0.84919       -1.86998       -1.04593
H         -1.58201       -1.86328       -1.08952
H         -2.23613       -2.48999       -0.00893
H         -3.44852       -4.56190        0.01231
H         -7.35238       -4.75955       -0.00109
H         -7.18820       -2.38870       -0.08651
H         -5.95471       -0.29641       -0.10757
H         -2.48202        2.43157       -1.13346
H         -3.72323        4.52638       -1.11191
H         -5.64256        5.82756       -0.53801
H         -6.40583        5.30366        1.00764
H         -7.17109        4.87239       -0.57385
H         -6.96408        2.61079        0.97727
H         -5.73264        0.50781        0.98252
H         -1.58509        1.91128        1.03698
H          0.84712        1.89312        1.04420
44

C          2.52473        0.00824        0.01349
C          1.02463        0.00472        0.00122
C          0.30786       -1.19788        0.00966
C         -1.08951       -1.18785       -0.00741
C         -1.81060        0.02660       -0.03360
N         -3.25950        0.03430       -0.05950
C         -3.98860       -1.21230       -0.05880
C         -5.26506       -1.31126        0.52833
C         -5.97732       -2.51476        0.50829
C         -5.42704       -3.66566       -0.09115
C         -6.11752       -4.98873       -0.16128
C         -5.98632       -5.92228       -1.11927
F         -5.15985       -5.78282       -2.18510
F         -6.69252       -7.07807       -1.00990
C         -4.14784       -3.57144       -0.66269
C         -3.44430       -2.36535       -0.65614
C         -3.99190        1.28110       -0.07160
C         -5.25044        1.39056       -0.70283
C         -5.94422        2.60378       -0.71702
C         -5.39991        3.74006       -0.10452
C         -6.12963        5.05064       -0.12198
C         -4.15638        3.64635        0.53046
C         -3.46247        2.43457        0.54948
C         -1.06961        1.23145       -0.03588
C          0.32763        1.21742       -0.01923
H          2.93489       -1.02400        0.03140
H          2.89006        0.54759        0.91265
H          2.90317        0.52027       -0.89619
H          0.82859       -2.14773        0.02380
H         -1.60266       -2.14028       -0.01670
H         -5.72749       -0.44743        0.98874
H         -6.94783       -2.51471        0.97233
H         -6.79006       -5.23473        0.65681
H         -3.68952       -4.43556       -1.12805
H         -2.46092       -2.34039       -1.10780
H         -5.71076        0.53452       -1.17568
H         -6.90853        2.65431       -1.20905
H         -7.09812        4.97134       -0.65980
H         -5.50685        5.81583       -0.63191
H         -6.33025        5.38080        0.91905
H         -3.72097        4.51616        1.00687
H         -2.49660        2.40927        1.03774
H         -1.56443        2.19188       -0.03532
H          0.86755        2.15647       -0.02077
44

C          2.52371        0.01489        0.07248
C          1.02427        0.02543        0.02732
C          0.33099        1.05947       -0.61313
C         -1.06619        1.06066       -0.64361
C         -1.81060        0.02660       -0.03360
N         -3.25950        0.03430       -0.05950
C         -3.98860       -1.21230       -0.05880
C         -5.26506       -1.31126        0.52833
C         -5.97732       -2.51476        0.50829
C         -5.42704       -3.66566       -0.09115
C         -6.11752       -4.98873       -0.16128
C         -5.98632       -5.92228       -1.11927
F         -5.15985       -5.78282       -2.18510
F         -6.69252       -7.07807       -1.00990
C         -4.14784       -3.57144       -0.66269
C         -3.44430       -2.36535       -0.65614
C         -3.99190        1.28110       -0.07160
C         -5.25044        1.39056       -0.70283
C         -5.94422        2.60378       -0.71702
C         -5.39991        3.74006       -0.10452
C         -6.12963        5.05064       -0.12198
C         -4.15638        3.64635        0.53046
C         -3.46247        2.43457        0.54948
C         -1.09296       -1.01253        0.60354
C          0.30414       -1.01005        0.63237
H          2.95370        0.89618       -0.44955
H          2.90611       -0.90527       -0.41735
H          2.86438        0.03251        1.12915
H          0.86979        1.87148       -1.08632
H         -1.56126        1.88762       -1.13510
H         -5.72749       -0.44743        0.98874
H         -6.94783       -2.51471        0.97233
H         -6.79006       -5.23473        0.65681
H         -3.68952       -4.43556       -1.12805
H         -2.46092       -2.34039       -1.10780
H         -5.71076        0.53452       -1.17568
H         -6.90853        2.65431       -1.20905
H         -7.09812        4.97134       -0.65980
H         -5.50685        5.81583       -0.63191
H         -6.33025        5.38080        0.91905
H         -3.72097        4.51616        1.00687
H         -2.49660        2.40927        1.03774
H         -1.60563       -1.84111        1.07034
H          0.82590       -1.82002        1.12739
44

C          2.52371        0.01489        0.07248
C          1.02427        0.02543        0.02732
C          0.33099        1.05947       -0.61313
C         -1.06619        1.06066       -0.64361
C         -1.81060        0.02660       -0.03360
N         -3.25950        0.03430       -0.05950
C         -3.98860       -1.21230       -0.05880
C         -5.26506       -1.31126        0.52833
C         -5.97732       -2.51476        0.50829
C         -5.42704       -3.66566       -0.09115
C         -6.11752       -4.98873       -0.16128
C         -5.98632       -5.92228       -1.11927
F         -5.15985       -5.78282       -2.18510
F         -6.69252       -7.07807       -1.00990
C         -4.14784       -3.57144       -0.66269
C         -3.44430       -2.36535       -0.65614
C         -3.99190        1.28110       -0.07160
C         -3.32678        2.52681       -0.05871
C         -4.04569        3.72540       -0.06002
C         -5.44651        3.71301       -0.07149
C         -6.22980        4.99237       -0.06230
C         -6.12033        2.48666       -0.09045
C         -5.40471        1.28742       -0.09290
C         -1.09296       -1.01253        0.60354
C          0.30414       -1.01005        0.63237
H          2.95370        0.89618       -0.44955
H          2.90611       -0.90527       -0.41735
H          2.86438        0.03251        1.12915
H          0.86979        1.87148       -1.08632
H         -1.56126        1.88762       -1.13510
H         -5.72749       -0.44743        0.98874
H         -6.94783       -2.51471        0.97233
H         -6.79006       -5.23473        0.65681
H         -3.68952       -4.43556       -1.12805
H         -2.46092       -2.34039       -1.10780
H         -2.24721        2.57989       -0.06251
H         -3.50523        4.66473       -0.05100
H         -5.56197        5.87966       -0.04712
H         -6.87719        5.02514        0.83948
H         -6.86790        5.04665       -0.96943
H         -7.20308        2.45997       -0.09743
H         -5.96480        0.36101       -0.09186
H         -1.60563       -1.84111        1.07034
H          0.82590       -1.82002        1.12739
44

C          2.52371        0.01489        0.07248
C          1.02427        0.02543        0.02732
C          0.33099        1.05947       -0.61313
C         -1.06619        1.06066       -0.64361
C         -1.81060        0.02660       -0.03360
N         -3.25950        0.03430       -0.05950
C         -3.98860       -1.21230       -0.05880
C         -5.26506       -1.31126        0.52833
C         -5.97732       -2.51476        0.50829
C         -5.42704       -3.66566       -0.09115
C         -6.11752       -4.98873       -0.16128
C         -6.92569       -5.43096       -1.13994
F         -7.21783       -4.70551       -2.24758
F         -7.46050       -6.67587       -1.03653
C         -4.14784       -3.57144       -0.66269
C         -3.44430       -2.36535       -0.65614
C         -3.99190        1.28110       -0.07160
C         -3.32678        2.52681       -0.05871
C         -4.04569        3.72540       -0.06002
C         -5.44651        3.71301       -0.07149
C         -6.22980        4.99237       -0.06230
C         -6.12033        2.48666       -0.09045
C         -5.40471        1.28742       -0.09290
C         -1.09296       -1.01253        0.60354
C          0.30414       -1.01005        0.63237
H          2.95370        0.89618       -0.44955
H          2.90611       -0.90527       -0.41735
H          2.86438        0.03251        1.12915
H          0.86979        1.87148       -1.08632
H         -1.56126        1.88762       -1.13510
H         -5.72749       -0.44743        0.98874
H         -6.94783       -2.51471        0.97233
H         -5.93899       -5.67903        0.65953
H         -3.68952       -4.43556       -1.12805
H         -2.46092       -2.34039       -1.10780
H         -2.24721        2.57989       -0.06251
H         -3.50523        4.66473       -0.05100
H         -5.56197        5.87966       -0.04712
H         -6.87719        5.02514        0.83948
H         -6.86790        5.04665       -0.96943
H         -7.20308        2.45997       -0.09743
H         -5.96480        0.36101       -0.09186
H         -1.60563       -1.84111        1.07034
H          0.82590       -1.82002        1.12739
44

C          2.52473        0.00824        0.01349
C          1.02463        0.00472        0.00122
C          0.30786       -1.19788        0.00966
C         -1.08951       -1.18785       -0.00741
C         -1.81060        0.02660       -0.03360
N         -3.25950        0.03430       -0.05950
C         -3.98860       -1.21230       -0.05880
C         -5.26506       -1.31126        0.52833
C         -5.97732       -2.51476        0.50829
C         -5.42704       -3.66566       -0.09115
C         -6.11752       -4.98873       -0.16128
C         -6.92569       -5.43096       -1.13994
F         -7.21783       -4.70551       -2.24758
F         -7.46050       -6.67587       -1.03653
C         -4.14784       -3.57144       -0.66269
C         -3.44430       -2.36535       -0.65614
C         -3.99190        1.28110       -0.07160
C         -5.25044        1.39056       -0.70283
C         -5.94422        2.60378       -0.71702
C         -5.39991        3.74006       -0.10452
C         -6.12963        5.05064       -0.12198
C         -4.15638        3.64635        0.53046
C         -3.46247        2.43457        0.54948
C         -1.06961        1.23145       -0.03588
C          0.32763        1.21742       -0.01923
H          2.93489       -1.02400        0.03140
H          2.89006        0.54759        0.91265
H          2.90317        0.52027       -0.89619
H          0.82859       -2.14773        0.02380
H         -1.60266       -2.14028       -0.01670
H         -5.72749       -0.44743        0.98874
H         -6.94783       -2.51471        0.97233
H         -5.93899       -5.67903        0.65953
H         -3.68952       -4.43556       -1.12805
H         -2.46092       -2.34039       -1.10780
H         -5.71076        0.53452       -1.17568
H         -6.90853        2.65431       -1.20905
H         -7.09812        4.97134       -0.65980
H         -5.50685        5.81583       -0.63191
H         -6.33025        5.38080        0.91905
H         -3.72097        4.51616        1.00687
H         -2.49660        2.40927        1.03774
H         -1.56443        2.19188       -0.03532
H          0.86755        2.15647       -0.02077
44

C          2.52371        0.01489        0.07248
C          1.02427        0.02543        0.02732
C          0.33099        1.05947       -0.61313
C         -1.06619        1.06066       -0.64361
C         -1.81060        0.02660       -0.03360
N         -3.25950        0.03430       -0.05950
C         -3.98860       -1.21230       -0.05880
C         -5.26506       -1.31126        0.52833
C         -5.97732       -2.51476        0.50829
C         -5.42704       -3.66566       -0.09115
C         -6.11752       -4.98873       -0.16128
C         -6.92569       -5.43096       -1.13994
F         -7.21783       -4.70551       -2.24758
F         -7.46050       -6.67587       -1.03653
C         -4.14784       -3.57144       -0.66269
C         -3.44430       -2.36535       -0.65614
C         -3.99190        1.28110       -0.07160
C         -5.25044        1.39056       -0.70283
C         -5.94422        2.60378       -0.71702
C         -5.39991        3.74006       -0.10452
C         -6.12963        5.05064       -0.12198
C         -4.15638        3.64635        0.53046
C         -3.46247        2.43457        0.54948
C         -1.09296       -1.01253        0.60354
C          0.30414       -1.01005        0.63237
H          2.95370        0.89618       -0.44955
H          2.90611       -0.90527       -0.41735
H          2.86438        0.03251        1.12915
H          0.86979        1.87148       -1.08632
H         -1.56126        1.88762       -1.13510
H         -5.72749       -0.44743        0.98874
H         -6.94783       -2.51471        0.97233
H         -5.93899       -5.67903        0.65953
H         -3.68952       -4.43556       -1.12805
H         -2.46092       -2.34039       -1.10780
H         -5.71076        0.53452       -1.17568
H         -6.90853        2.65431       -1.20905
H         -7.09812        4.97134       -0.65980
H         -5.50685        5.81583       -0.63191
H         -6.33025        5.38080        0.91905
H         -3.72097        4.51616        1.00687
H         -2.49660        2.40927        1.03774
H         -1.60563       -1.84111        1.07034
H          0.82590       -1.82002        1.12739
44

C          2.52371        0.01489        0.07248
C          1.02427        0.02543        0.02732
C          0.33099        1.05947       -0.61313
C         -1.06619        1.06066       -0.64361
C         -1.81060        0.02660       -0.03360
N         -3.25950        0.03430       -0.05950
C         -3.98860       -1.21230       -0.05880
C         -3.31774       -2.45051       -0.03325
C         -4.02741       -3.65549       -0.01104
C         -5.43681       -3.65990       -0.02677
C         -6.27387       -4.89719       -0.00126
C         -6.74580       -5.53492        1.08366
F         -6.52594       -5.10760        2.35155
F         -7.50418       -6.64923        0.91133
C         -6.10580       -2.42595       -0.06817
C         -5.39652       -1.22323       -0.07427
C         -3.99190        1.28110       -0.07160
C         -5.25044        1.39056       -0.70283
C         -5.94422        2.60378       -0.71702
C         -5.39991        3.74006       -0.10452
C         -6.12963        5.05064       -0.12198
C         -4.15638        3.64635        0.53046
C         -3.46247        2.43457        0.54948
C         -1.09296       -1.01253        0.60354
C          0.30414       -1.01005        0.63237
H          2.95370        0.89618       -0.44955
H          2.90611       -0.90527       -0.41735
H          2.86438        0.03251        1.12915
H          0.86979        1.87148       -1.08632
H         -1.56126        1.88762       -1.13510
H         -2.23613       -2.48999       -0.00893
H         -3.44852       -4.56190        0.01231
H         -6.54610       -5.32486       -0.96309
H         -7.18820       -2.38870       -0.08651
H         -5.95471       -0.29641       -0.10757
H         -5.71076        0.53452       -1.17568
H         -6.90853        2.65431       -1.20905
H         -7.09812        4.97134       -0.65980
H         -5.50685        5.81583       -0.63191
H         -6.33025        5.38080        0.91905
H         -3.72097        4.51616        1.00687
H         -2.49660        2.40927        1.03774
H         -1.60563       -1.84111        1.07034
H          0.82590       -1.82002        1.12739
44

C          2.52371        0.01489        0.07248
C          1.02427        0.02543        0.02732
C          0.33099        1.05947       -0.61313
C         -1.06619        1.06066       -0.64361
C         -1.81060        0.02660       -0.03360
N         -3.25950        0.03430       -0.05950
C         -3.98860       -1.21230       -0.05880
C         -3.31774       -2.45051       -0.03325
C         -4.02741       -3.65549       -0.01104
C         -5.43681       -3.65990       -0.02677
C         -6.27387       -4.89719       -0.00126
C         -7.50037       -5.03583        0.53069
F         -8.17229       -4.01908        1.12501
F         -8.11725       -6.24396        0.45071
C         -6.10580       -2.42595       -0.06817
C         -5.39652       -1.22323       -0.07427
C         -3.99190        1.28110       -0.07160
C         -5.25044        1.39056       -0.70283
C         -5.94422        2.60378       -0.71702
C         -5.39991        3.74006       -0.10452
C         -6.12963        5.05064       -0.12198
C         -4.15638        3.64635        0.53046
C         -3.46247        2.43457        0.54948
C         -1.09296       -1.01253        0.60354
C          0.30414       -1.01005        0.63237
H          2.95370        0.89618       -0.44955
H          2.90611       -0.90527       -0.41735
H          2.86438        0.03251        1.12915
H          0.86979        1.87148       -1.08632
H         -1.56126        1.88762       -1.13510
H         -2.23613       -2.48999       -0.00893
H         -3.44852       -4.56190        0.01231
H         -5.85617       -5.78158       -0.47612
H         -7.18820       -2.38870       -0.08651
H         -5.95471       -0.29641       -0.10757
H         -5.71076        0.53452       -1.17568
H         -6.90853        2.65431       -1.20905
H         -7.09812        4.97134       -0.65980
H         -5.50685        5.81583       -0.63191
H         -6.33025        5.38080        0.91905
H         -3.72097        4.51616        1.00687
H         -2.49660        2.40927        1.03774
H         -1.60563       -1.84111        1.07034
H          0.82590       -1.82002        1.12739
