
  xtb     02012213503D
 xtb: 6.4.1 (23d549d)
 21 21  0     0  0            999 V2000
    3.0330    0.4225    0.0002 c   0  0  0  0  0  0  0  0  0  0  0  0
    1.5781    0.0606   -0.0012 c   0  0  0  0  0  0  0  0  0  0  0  0
    1.1594   -1.2609    0.0012 c   0  0  0  0  0  0  0  0  0  0  0  0
   -0.1895   -1.5648    0.0012 c   0  0  0  0  0  0  0  0  0  0  0  0
   -1.1595   -0.5714   -0.0013 c   0  0  0  0  0  0  0  0  0  0  0  0
   -2.6109   -0.9549    0.0002 c   0  0  0  0  0  0  0  0  0  0  0  0
   -0.7486    0.7631   -0.0047 c   0  0  0  0  0  0  0  0  0  0  0  0
   -1.7165    1.9119   -0.0088 c   0  0  0  0  0  0  0  0  0  0  0  0
    0.6090    1.0535   -0.0044 c   0  0  0  0  0  0  0  0  0  0  0  0
    3.6550   -0.4691    0.0011 h   0  0  0  0  0  0  0  0  0  0  0  0
    3.2762    1.0166    0.8805 h   0  0  0  0  0  0  0  0  0  0  0  0
    3.2783    1.0166   -0.8795 h   0  0  0  0  0  0  0  0  0  0  0  0
    1.8888   -2.0584    0.0032 h   0  0  0  0  0  0  0  0  0  0  0  0
   -0.4956   -2.6017    0.0033 h   0  0  0  0  0  0  0  0  0  0  0  0
   -2.7153   -2.0372    0.0025 h   0  0  0  0  0  0  0  0  0  0  0  0
   -3.1168   -0.5658   -0.8829 h   0  0  0  0  0  0  0  0  0  0  0  0
   -3.1154   -0.5622    0.8826 h   0  0  0  0  0  0  0  0  0  0  0  0
   -2.7492    1.5810   -0.0069 h   0  0  0  0  0  0  0  0  0  0  0  0
   -1.5549    2.5309   -0.8909 h   0  0  0  0  0  0  0  0  0  0  0  0
   -1.5540    2.5382    0.8680 h   0  0  0  0  0  0  0  0  0  0  0  0
    0.9198    2.0897   -0.0067 h   0  0  0  0  0  0  0  0  0  0  0  0
  1  2  1  0  0  0  0
  2  3  4  0  0  0  0
  3  4  4  0  0  0  0
  4  5  4  0  0  0  0
  5  6  1  0  0  0  0
  5  7  4  0  0  0  0
  7  8  1  0  0  0  0
  2  9  4  0  0  0  0
  7  9  4  0  0  0  0
  1 10  1  0  0  0  0
  1 11  1  0  0  0  0
  1 12  1  0  0  0  0
  3 13  1  0  0  0  0
  4 14  1  0  0  0  0
  6 15  1  0  0  0  0
  6 16  1  0  0  0  0
  6 17  1  0  0  0  0
  8 18  1  0  0  0  0
  8 19  1  0  0  0  0
  8 20  1  0  0  0  0
  9 21  1  0  0  0  0
M  END
