26

C          1.10285       -0.54325        1.01969
O          2.33582       -0.35848        0.43011
C          3.10630       -1.36710       -0.05960
O          2.56200       -2.37026       -0.49053
C          4.60270       -1.21600       -0.06040
C          5.29390       -1.89040       -1.08790
C          6.68290       -1.83060       -1.20430
C          7.38660       -2.55740       -2.31710
C          7.42220       -1.09160       -0.28200
F          8.77520       -1.04750       -0.40800
C          6.78230       -0.40340        0.76300
C          7.62790        0.37700        1.74330
C          5.36250       -0.45250        0.88950
N          4.74660        0.25470        1.97120
H          0.68360        0.44349        1.30432
H          1.20477       -1.16815        1.93246
H          0.40701       -1.03320        0.30502
H          4.74860       -2.47240       -1.82070
H          6.67220       -3.09910       -2.97290
H          8.09720       -3.29630       -1.89050
H          7.94830       -1.83060       -2.94090
H          8.71260        0.31740        1.51960
H          7.48060       -0.02490        2.76800
H          7.34270        1.44980        1.71710
H          5.29920        0.80140        2.64330
H          3.74270        0.25560        2.16030
26

C          1.47664       -0.49125        1.50069
O          2.33582       -0.35848        0.43011
C          3.10630       -1.36710       -0.05960
O          2.56200       -2.37026       -0.49053
C          4.60270       -1.21600       -0.06040
C          5.29390       -1.89040       -1.08790
C          6.68290       -1.83060       -1.20430
C          7.38660       -2.55740       -2.31710
C          7.42220       -1.09160       -0.28200
F          8.77520       -1.04750       -0.40800
C          6.78230       -0.40340        0.76300
C          7.62790        0.37700        1.74330
C          5.36250       -0.45250        0.88950
N          4.74660        0.25470        1.97120
H          0.95611        0.47322        1.67185
H          2.04475       -0.76139        2.41627
H          0.71657       -1.27307        1.28611
H          4.74860       -2.47240       -1.82070
H          6.67220       -3.09910       -2.97290
H          8.09720       -3.29630       -1.89050
H          7.94830       -1.83060       -2.94090
H          8.71260        0.31740        1.51960
H          7.48060       -0.02490        2.76800
H          7.34270        1.44980        1.71710
H          5.29920        0.80140        2.64330
H          3.74270        0.25560        2.16030
26

C          1.68491       -2.57026       -1.60538
O          2.55310       -2.51536       -0.53525
C          3.10630       -1.36710       -0.05960
O          2.37237       -0.48774        0.36036
C          4.60270       -1.21600       -0.06040
C          5.29390       -1.89040       -1.08790
C          6.68290       -1.83060       -1.20430
C          7.38660       -2.55740       -2.31710
C          7.42220       -1.09160       -0.28200
F          8.77520       -1.04750       -0.40800
C          6.78230       -0.40340        0.76300
C          7.62790        0.37700        1.74330
C          5.36250       -0.45250        0.88950
N          4.74660        0.25470        1.97120
H          1.36773       -3.62136       -1.76362
H          2.18771       -2.20335       -2.52549
H          0.78384       -1.95356       -1.39858
H          4.74860       -2.47240       -1.82070
H          6.67220       -3.09910       -2.97290
H          8.09720       -3.29630       -1.89050
H          7.94830       -1.83060       -2.94090
H          8.71260        0.31740        1.51960
H          7.48060       -0.02490        2.76800
H          7.34270        1.44980        1.71710
H          5.29920        0.80140        2.64330
H          3.74270        0.25560        2.16030
26

C          1.44980       -0.37632        1.40046
O          2.43160       -1.30335        1.12001
C          3.10630       -1.36710       -0.05960
O          2.47805       -1.54203       -1.09062
C          4.60270       -1.21600       -0.06040
C          5.29390       -1.89040       -1.08790
C          6.68290       -1.83060       -1.20430
C          7.38660       -2.55740       -2.31710
C          7.42220       -1.09160       -0.28200
F          8.77520       -1.04750       -0.40800
C          6.78230       -0.40340        0.76300
C          7.62790        0.37700        1.74330
C          5.36250       -0.45250        0.88950
N          4.74660        0.25470        1.97120
H          1.08615       -0.53296        2.43665
H          0.59789       -0.49645        0.69772
H          1.86135        0.65276        1.31912
H          4.74860       -2.47240       -1.82070
H          6.67220       -3.09910       -2.97290
H          8.09720       -3.29630       -1.89050
H          7.94830       -1.83060       -2.94090
H          8.71260        0.31740        1.51960
H          7.48060       -0.02490        2.76800
H          7.34270        1.44980        1.71710
H          5.29920        0.80140        2.64330
H          3.74270        0.25560        2.16030
26

C          1.56792       -1.39356        1.80857
O          2.37460       -0.74008        0.90073
C          3.10630       -1.36710       -0.05960
O          2.52795       -2.03515       -0.90073
C          4.60270       -1.21600       -0.06040
C          5.29390       -1.89040       -1.08790
C          6.68290       -1.83060       -1.20430
C          7.38660       -2.55740       -2.31710
C          7.42220       -1.09160       -0.28200
F          8.77520       -1.04750       -0.40800
C          6.78230       -0.40340        0.76300
C          7.62790        0.37700        1.74330
C          5.36250       -0.45250        0.88950
N          4.74660        0.25470        1.97120
H          1.06944       -0.64499        2.45790
H          2.17711       -2.07202        2.44308
H          0.78776       -1.97821        1.27514
H          4.74860       -2.47240       -1.82070
H          6.67220       -3.09910       -2.97290
H          8.09720       -3.29630       -1.89050
H          7.94830       -1.83060       -2.94090
H          8.71260        0.31740        1.51960
H          7.48060       -0.02490        2.76800
H          7.34270        1.44980        1.71710
H          5.29920        0.80140        2.64330
H          3.74270        0.25560        2.16030
26

C          1.59401       -1.67179       -1.92442
O          2.51490       -2.13955       -1.01056
C          3.10630       -1.36710       -0.05960
O          2.40592       -0.81779        0.77468
C          4.60270       -1.21600       -0.06040
C          5.29390       -1.89040       -1.08790
C          6.68290       -1.83060       -1.20430
C          7.38660       -2.55740       -2.31710
C          7.42220       -1.09160       -0.28200
F          8.77520       -1.04750       -0.40800
C          6.78230       -0.40340        0.76300
C          7.62790        0.37700        1.74330
C          5.36250       -0.45250        0.88950
N          4.74660        0.25470        1.97120
H          1.25537       -2.51287       -2.56346
H          2.05539       -0.89315       -2.56852
H          0.71264       -1.24835       -1.39634
H          4.74860       -2.47240       -1.82070
H          6.67220       -3.09910       -2.97290
H          8.09720       -3.29630       -1.89050
H          7.94830       -1.83060       -2.94090
H          8.71260        0.31740        1.51960
H          7.48060       -0.02490        2.76800
H          7.34270        1.44980        1.71710
H          5.29920        0.80140        2.64330
H          3.74270        0.25560        2.16030
26

C          1.67794       -2.65122       -1.53209
O          2.45525       -1.55010       -1.24003
C          3.10630       -1.36710       -0.05960
O          2.45813       -1.33384        0.97339
C          4.60270       -1.21600       -0.06040
C          5.29390       -1.89040       -1.08790
C          6.68290       -1.83060       -1.20430
C          7.38660       -2.55740       -2.31710
C          7.42220       -1.09160       -0.28200
F          8.77520       -1.04750       -0.40800
C          6.78230       -0.40340        0.76300
C          7.62790        0.37700        1.74330
C          5.36250       -0.45250        0.88950
N          4.74660        0.25470        1.97120
H          1.28794       -2.55786       -2.56633
H          0.82082       -2.71237       -0.82808
H          2.28708       -3.57816       -1.46341
H          4.74860       -2.47240       -1.82070
H          6.67220       -3.09910       -2.97290
H          8.09720       -3.29630       -1.89050
H          7.94830       -1.83060       -2.94090
H          8.71260        0.31740        1.51960
H          7.48060       -0.02490        2.76800
H          7.34270        1.44980        1.71710
H          5.29920        0.80140        2.64330
H          3.74270        0.25560        2.16030
26

C          1.49524       -0.69257       -1.73498
O          2.45525       -1.55010       -1.24003
C          3.10630       -1.36710       -0.05960
O          2.45813       -1.33384        0.97339
C          4.60270       -1.21600       -0.06040
C          5.29390       -1.89040       -1.08790
C          6.68290       -1.83060       -1.20430
C          7.38660       -2.55740       -2.31710
C          7.42220       -1.09160       -0.28200
F          8.77520       -1.04750       -0.40800
C          6.78230       -0.40340        0.76300
C          7.62790        0.37700        1.74330
C          5.36250       -0.45250        0.88950
N          4.74660        0.25470        1.97120
H          1.11173       -1.09102       -2.69655
H          1.93398        0.31269       -1.91100
H          0.64865       -0.61268       -1.01950
H          4.74860       -2.47240       -1.82070
H          6.67220       -3.09910       -2.97290
H          8.09720       -3.29630       -1.89050
H          7.94830       -1.83060       -2.94090
H          8.71260        0.31740        1.51960
H          7.48060       -0.02490        2.76800
H          7.34270        1.44980        1.71710
H          5.29920        0.80140        2.64330
H          3.74270        0.25560        2.16030
26

C          1.66231       -2.32930        1.62754
O          2.43160       -1.30335        1.12001
C          3.10630       -1.36710       -0.05960
O          2.47805       -1.54203       -1.09062
C          4.60270       -1.21600       -0.06040
C          5.29390       -1.89040       -1.08790
C          6.68290       -1.83060       -1.20430
C          7.38660       -2.55740       -2.31710
C          7.42220       -1.09160       -0.28200
F          8.77520       -1.04750       -0.40800
C          6.78230       -0.40340        0.76300
C          7.62790        0.37700        1.74330
C          5.36250       -0.45250        0.88950
N          4.74660        0.25470        1.97120
H          1.20671       -2.00369        2.58508
H          2.29313       -3.22431        1.81476
H          0.84891       -2.58565        0.91504
H          4.74860       -2.47240       -1.82070
H          6.67220       -3.09910       -2.97290
H          8.09720       -3.29630       -1.89050
H          7.94830       -1.83060       -2.94090
H          8.71260        0.31740        1.51960
H          7.48060       -0.02490        2.76800
H          7.34270        1.44980        1.71710
H          5.29920        0.80140        2.64330
H          3.74270        0.25560        2.16030
26

C          1.39204        0.19173        0.63949
O          2.37460       -0.74008        0.90073
C          3.10630       -1.36710       -0.05960
O          2.52795       -2.03515       -0.90073
C          4.60270       -1.21600       -0.06040
C          5.29390       -1.89040       -1.08790
C          6.68290       -1.83060       -1.20430
C          7.38660       -2.55740       -2.31710
C          7.42220       -1.09160       -0.28200
F          8.77520       -1.04750       -0.40800
C          6.78230       -0.40340        0.76300
C          7.62790        0.37700        1.74330
C          5.36250       -0.45250        0.88950
N          4.74660        0.25470        1.97120
H          0.97529        0.56049        1.59908
H          0.57468       -0.27005        0.04560
H          1.82028        1.05292        0.08275
H          4.74860       -2.47240       -1.82070
H          6.67220       -3.09910       -2.97290
H          8.09720       -3.29630       -1.89050
H          7.94830       -1.83060       -2.94090
H          8.71260        0.31740        1.51960
H          7.48060       -0.02490        2.76800
H          7.34270        1.44980        1.71710
H          5.29920        0.80140        2.64330
H          3.74270        0.25560        2.16030
