
 OpenBabel02012214153D

 26 26  0  0  0  0  0  0  0  0999 V2000
    1.2646   -2.5042   -0.7188 C   0  0  0  0  0  0  0  0  0  0  0  0
    2.6816   -2.3350   -0.7329 O   0  0  0  0  0  0  0  0  0  0  0  0
    3.1151   -1.1757   -0.1747 C   0  0  0  0  0  0  0  0  0  0  0  0
    2.4127   -0.3006    0.3078 O   0  0  0  0  0  0  0  0  0  0  0  0
    4.6028   -1.1319   -0.1989 C   0  0  0  0  0  0  0  0  0  0  0  0
    5.2875   -1.7647   -1.2521 C   0  0  0  0  0  0  0  0  0  0  0  0
    6.6824   -1.7542   -1.2974 C   0  0  0  0  0  0  0  0  0  0  0  0
    7.4282   -2.4496   -2.3953 C   0  0  0  0  0  0  0  0  0  0  0  0
    7.3791   -1.1027   -0.2787 C   0  0  0  0  0  0  0  0  0  0  0  0
    8.7216   -1.1151   -0.3123 F   0  0  0  0  0  0  0  0  0  0  0  0
    6.7222   -0.4541    0.7791 C   0  0  0  0  0  0  0  0  0  0  0  0
    7.5433    0.1925    1.8609 C   0  0  0  0  0  0  0  0  0  0  0  0
    5.3101   -0.4253    0.8042 C   0  0  0  0  0  0  0  0  0  0  0  0
    4.6425    0.0865    1.9396 N   0  0  0  0  0  0  0  0  0  0  0  0
    1.0469   -3.5333   -1.0182 H   0  0  0  0  0  0  0  0  0  0  0  0
    0.8007   -1.8256   -1.4407 H   0  0  0  0  0  0  0  0  0  0  0  0
    0.8557   -2.3452    0.2840 H   0  0  0  0  0  0  0  0  0  0  0  0
    4.7294   -2.2727   -2.0362 H   0  0  0  0  0  0  0  0  0  0  0  0
    6.7439   -2.9012   -3.1213 H   0  0  0  0  0  0  0  0  0  0  0  0
    8.0495   -3.2492   -1.9796 H   0  0  0  0  0  0  0  0  0  0  0  0
    8.0645   -1.7382   -2.9315 H   0  0  0  0  0  0  0  0  0  0  0  0
    8.6179    0.0779    1.6861 H   0  0  0  0  0  0  0  0  0  0  0  0
    7.3198   -0.2625    2.8318 H   0  0  0  0  0  0  0  0  0  0  0  0
    7.3339    1.2666    1.9038 H   0  0  0  0  0  0  0  0  0  0  0  0
    5.1171    0.8518    2.4055 H   0  0  0  0  0  0  0  0  0  0  0  0
    3.6620    0.3189    1.7455 H   0  0  0  0  0  0  0  0  0  0  0  0
  1  2  1  0  0  0  0
  1 15  1  0  0  0  0
  1 16  1  0  0  0  0
  1 17  1  0  0  0  0
  2  3  1  0  0  0  0
  3  4  2  0  0  0  0
  3  5  1  0  0  0  0
  5  6  1  0  0  0  0
  5 13  2  0  0  0  0
  6  7  2  0  0  0  0
  6 18  1  0  0  0  0
  7  8  1  0  0  0  0
  7  9  1  0  0  0  0
  8 19  1  0  0  0  0
  8 20  1  0  0  0  0
  8 21  1  0  0  0  0
  9 10  1  0  0  0  0
  9 11  2  0  0  0  0
 11 12  1  0  0  0  0
 11 13  1  0  0  0  0
 12 22  1  0  0  0  0
 12 23  1  0  0  0  0
 12 24  1  0  0  0  0
 13 14  1  0  0  0  0
 14 25  1  0  0  0  0
 14 26  1  0  0  0  0
M  END
