17

C          1.42899        0.90716       -0.36237
C          2.40190        0.12500        0.11330
C          3.11990        0.45570        1.35510
C          2.75620        0.04960        2.62360
C          3.69960        0.58270        3.47440
C          4.57930        1.28070        2.67120
C          5.76010        2.02370        3.14160
C          6.95916        1.44278        3.24006
O          4.21000        1.18850        1.41260
H          0.91685        0.63815       -1.28004
H          1.13409        1.81643        0.15335
H          2.66975       -0.77668       -0.42945
H          1.90620       -0.56200        2.89700
H          3.73930        0.47510        4.55030
H          5.65401        3.06924        3.41540
H          7.10336        0.39935        2.97550
H          7.81173        2.01505        3.58996
17

C          2.70127       -0.96439       -0.59958
C          2.40190        0.12500        0.11330
C          3.11990        0.45570        1.35510
C          2.75620        0.04960        2.62360
C          3.69960        0.58270        3.47440
C          4.57930        1.28070        2.67120
C          5.76010        2.02370        3.14160
C          5.68676        3.31478        3.47722
O          4.21000        1.18850        1.41260
H          2.15534       -1.18278       -1.51120
H          3.48749       -1.64481       -0.28562
H          1.60943        0.78254       -0.23161
H          1.90620       -0.56200        2.89700
H          3.73930        0.47510        4.55030
H          6.71393        1.51007        3.21750
H          4.75033        3.86126        3.41397
H          6.57349        3.83689        3.82060
17

C          3.04011        0.00785       -1.05442
C          2.40190        0.12500        0.11330
C          3.11990        0.45570        1.35510
C          2.75620        0.04960        2.62360
C          3.69960        0.58270        3.47440
C          4.57930        1.28070        2.67120
C          5.76010        2.02370        3.14160
C          6.55284        2.68683        2.29501
O          4.21000        1.18850        1.41260
H          2.48483       -0.23653       -1.95370
H          4.11401        0.15347       -1.12676
H          1.32724       -0.02762        0.14730
H          1.90620       -0.56200        2.89700
H          3.73930        0.47510        4.55030
H          5.99259        2.03291        4.20237
H          6.35201        2.69993        1.22776
H          7.41638        3.22569        2.67016
17

C          1.42899        0.90716       -0.36237
C          2.40190        0.12500        0.11330
C          3.11990        0.45570        1.35510
C          2.75620        0.04960        2.62360
C          3.69960        0.58270        3.47440
C          4.57930        1.28070        2.67120
C          5.76010        2.02370        3.14160
C          5.68676        3.31478        3.47722
O          4.21000        1.18850        1.41260
H          0.91685        0.63815       -1.28004
H          1.13409        1.81643        0.15335
H          2.66975       -0.77668       -0.42945
H          1.90620       -0.56200        2.89700
H          3.73930        0.47510        4.55030
H          6.71393        1.51007        3.21750
H          4.75033        3.86126        3.41397
H          6.57349        3.83689        3.82060
17

C          2.70127       -0.96439       -0.59958
C          2.40190        0.12500        0.11330
C          3.11990        0.45570        1.35510
C          2.75620        0.04960        2.62360
C          3.69960        0.58270        3.47440
C          4.57930        1.28070        2.67120
C          5.76010        2.02370        3.14160
C          6.95916        1.44278        3.24006
O          4.21000        1.18850        1.41260
H          2.15534       -1.18278       -1.51120
H          3.48749       -1.64481       -0.28562
H          1.60943        0.78254       -0.23161
H          1.90620       -0.56200        2.89700
H          3.73930        0.47510        4.55030
H          5.65401        3.06924        3.41540
H          7.10336        0.39935        2.97550
H          7.81173        2.01505        3.58996
17

C          2.39718        0.95362       -0.93454
C          2.40190        0.12500        0.11330
C          3.11990        0.45570        1.35510
C          2.75620        0.04960        2.62360
C          3.69960        0.58270        3.47440
C          4.57930        1.28070        2.67120
C          5.76010        2.02370        3.14160
C          6.55284        2.68683        2.29501
O          4.21000        1.18850        1.41260
H          1.85898        0.68364       -1.83689
H          2.92475        1.90255       -0.90494
H          1.86306       -0.81555        0.04732
H          1.90620       -0.56200        2.89700
H          3.73930        0.47510        4.55030
H          5.99259        2.03291        4.20237
H          6.35201        2.69993        1.22776
H          7.41638        3.22569        2.67016
17

C          2.70127       -0.96439       -0.59958
C          2.40190        0.12500        0.11330
C          3.11990        0.45570        1.35510
C          2.75620        0.04960        2.62360
C          3.69960        0.58270        3.47440
C          4.57930        1.28070        2.67120
C          5.76010        2.02370        3.14160
C          6.42829        1.65462        4.23805
O          4.21000        1.18850        1.41260
H          2.15534       -1.18278       -1.51120
H          3.48749       -1.64481       -0.28562
H          1.60943        0.78254       -0.23161
H          1.90620       -0.56200        2.89700
H          3.73930        0.47510        4.55030
H          6.09612        2.89296        2.58405
H          6.12160        0.79115        4.82106
H          7.29507        2.22128        4.56115
17

C          1.42899        0.90716       -0.36237
C          2.40190        0.12500        0.11330
C          3.11990        0.45570        1.35510
C          2.75620        0.04960        2.62360
C          3.69960        0.58270        3.47440
C          4.57930        1.28070        2.67120
C          5.76010        2.02370        3.14160
C          5.79888        2.58063        4.35537
O          4.21000        1.18850        1.41260
H          0.91685        0.63815       -1.28004
H          1.13409        1.81643        0.15335
H          2.66975       -0.77668       -0.42945
H          1.90620       -0.56200        2.89700
H          3.73930        0.47510        4.55030
H          6.62043        2.12169        2.48615
H          4.95764        2.50364        5.03795
H          6.68255        3.12248        4.67524
17

C          1.71219       -1.01185       -0.01507
C          2.40190        0.12500        0.11330
C          3.11990        0.45570        1.35510
C          2.75620        0.04960        2.62360
C          3.69960        0.58270        3.47440
C          4.57930        1.28070        2.67120
C          5.76010        2.02370        3.14160
C          6.95916        1.44278        3.24006
O          4.21000        1.18850        1.41260
H          1.19290       -1.22926       -0.94235
H          1.65820       -1.73279        0.79549
H          2.43352        0.82226       -0.71867
H          1.90620       -0.56200        2.89700
H          3.73930        0.47510        4.55030
H          5.65401        3.06924        3.41540
H          7.10336        0.39935        2.97550
H          7.81173        2.01505        3.58996
17

C          1.08283       -0.08605        0.10228
C          2.40190        0.12500        0.11330
C          3.11990        0.45570        1.35510
C          2.75620        0.04960        2.62360
C          3.69960        0.58270        3.47440
C          4.57930        1.28070        2.67120
C          5.76010        2.02370        3.14160
C          5.68676        3.31478        3.47722
O          4.21000        1.18850        1.41260
H          0.58026       -0.32851       -0.82800
H          0.49406       -0.02064        1.01263
H          2.95802        0.05096       -0.81653
H          1.90620       -0.56200        2.89700
H          3.73930        0.47510        4.55030
H          6.71393        1.51007        3.21750
H          4.75033        3.86126        3.41397
H          6.57349        3.83689        3.82060
