
  xtb     02032211343D
 xtb: 6.4.1 (23d549d)
 23 24  0     0  0            999 V2000
   -5.1599    0.2672   -0.0173 F   0  0  0  0  0  0  0  0  0  0  0  0
   -3.8803   -0.0955    0.0214 C   0  0  0  0  0  0  0  0  0  0  0  0
   -3.8107   -1.4112    0.1794 F   0  0  0  0  0  0  0  0  0  0  0  0
   -2.8804    0.7679   -0.0866 C   0  0  0  0  0  0  0  0  0  0  0  0
   -1.4520    0.5040   -0.0608 C   0  0  0  0  0  0  0  0  0  0  0  0
   -0.5791    1.5857   -0.2058 C   0  0  0  0  0  0  0  0  0  0  0  0
    0.7876    1.4080   -0.1956 C   0  0  0  0  0  0  0  0  0  0  0  0
    1.3249    0.1327   -0.0329 C   0  0  0  0  0  0  0  0  0  0  0  0
    2.7088   -0.0518   -0.0156 N   0  0  0  0  0  0  0  0  0  0  0  0
    3.6517    0.8210    0.4435 C   0  0  0  0  0  0  0  0  0  0  0  0
    4.8554    0.3454    0.3378 N   0  0  0  0  0  0  0  0  0  0  0  0
    4.7190   -0.8873   -0.2230 C   0  0  0  0  0  0  0  0  0  0  0  0
    3.4021   -1.1587   -0.4399 C   0  0  0  0  0  0  0  0  0  0  0  0
    0.4638   -0.9522    0.1166 C   0  0  0  0  0  0  0  0  0  0  0  0
   -0.9033   -0.7701    0.1005 C   0  0  0  0  0  0  0  0  0  0  0  0
   -3.1777    1.7993   -0.2102 H   0  0  0  0  0  0  0  0  0  0  0  0
   -0.9820    2.5790   -0.3355 H   0  0  0  0  0  0  0  0  0  0  0  0
    1.4433    2.2545   -0.3287 H   0  0  0  0  0  0  0  0  0  0  0  0
    3.4094    1.7716    0.8738 H   0  0  0  0  0  0  0  0  0  0  0  0
    5.5756   -1.4962   -0.4301 H   0  0  0  0  0  0  0  0  0  0  0  0
    2.9178   -2.0047   -0.8808 H   0  0  0  0  0  0  0  0  0  0  0  0
    0.8686   -1.9421    0.2609 H   0  0  0  0  0  0  0  0  0  0  0  0
   -1.5424   -1.6289    0.2207 H   0  0  0  0  0  0  0  0  0  0  0  0
  1  2  1  0  0  0  0
  2  3  1  0  0  0  0
  2  4  2  0  0  0  0
  4  5  1  0  0  0  0
  5  6  4  0  0  0  0
  6  7  4  0  0  0  0
  7  8  4  0  0  0  0
  8  9  1  0  0  0  0
  9 10  4  0  0  0  0
 10 11  2  0  0  0  0
 11 12  4  0  0  0  0
  9 13  1  0  0  0  0
 12 13  2  0  0  0  0
  8 14  4  0  0  0  0
  5 15  4  0  0  0  0
 14 15  4  0  0  0  0
  4 16  1  0  0  0  0
  6 17  1  0  0  0  0
  7 18  1  0  0  0  0
 10 19  1  0  0  0  0
 12 20  1  0  0  0  0
 13 21  1  0  0  0  0
 14 22  1  0  0  0  0
 15 23  1  0  0  0  0
M  END
