
 OpenBabel02032210503D

 20 20  0  0  0  0  0  0  0  0999 V2000
    2.6048    0.8204    0.9181 C   0  0  0  0  0  0  0  0  0  0  0  0
    2.2926   -0.1894    0.0979 C   0  0  0  0  0  0  0  0  0  0  0  0
    3.0570   -0.4724   -1.1221 C   0  0  0  0  0  0  0  0  0  0  0  0
    4.1974   -1.2823   -1.0061 C   0  0  0  0  0  0  0  0  0  0  0  0
    4.9618   -1.6008   -2.1294 C   0  0  0  0  0  0  0  0  0  0  0  0
    4.5943   -1.1145   -3.3806 C   0  0  0  0  0  0  0  0  0  0  0  0
    3.4673   -0.3012   -3.5090 C   0  0  0  0  0  0  0  0  0  0  0  0
    2.6933    0.0320   -2.3853 C   0  0  0  0  0  0  0  0  0  0  0  0
    1.5411    0.9133   -2.5864 C   0  0  0  0  0  0  0  0  0  0  0  0
    0.3152    0.4695   -2.8713 C   0  0  0  0  0  0  0  0  0  0  0  0
    0.0571   -0.8515   -2.9733 F   0  0  0  0  0  0  0  0  0  0  0  0
   -0.6776    1.3611   -3.0760 F   0  0  0  0  0  0  0  0  0  0  0  0
    2.0335    0.9889    1.8259 H   0  0  0  0  0  0  0  0  0  0  0  0
    3.4299    1.4952    0.7117 H   0  0  0  0  0  0  0  0  0  0  0  0
    1.4686   -0.8623    0.3185 H   0  0  0  0  0  0  0  0  0  0  0  0
    4.4955   -1.6712   -0.0347 H   0  0  0  0  0  0  0  0  0  0  0  0
    5.8421   -2.2299   -2.0260 H   0  0  0  0  0  0  0  0  0  0  0  0
    5.1858   -1.3653   -4.2575 H   0  0  0  0  0  0  0  0  0  0  0  0
    3.1972    0.0728   -4.4942 H   0  0  0  0  0  0  0  0  0  0  0  0
    1.7295    1.9797   -2.5155 H   0  0  0  0  0  0  0  0  0  0  0  0
  1  2  2  0  0  0  0
  1 13  1  0  0  0  0
  1 14  1  0  0  0  0
  2  3  1  0  0  0  0
  2 15  1  0  0  0  0
  3  4  1  0  0  0  0
  3  8  2  0  0  0  0
  4  5  2  0  0  0  0
  4 16  1  0  0  0  0
  5  6  1  0  0  0  0
  5 17  1  0  0  0  0
  6  7  2  0  0  0  0
  6 18  1  0  0  0  0
  7  8  1  0  0  0  0
  7 19  1  0  0  0  0
  8  9  1  0  0  0  0
  9 10  2  0  0  0  0
  9 20  1  0  0  0  0
 10 11  1  0  0  0  0
 10 12  1  0  0  0  0
M  END
