
  xtb     02032211353D
 xtb: 6.4.1 (23d549d)
 20 20  0     0  0            999 V2000
    3.8152   -0.3191    0.0479 C   0  0  0  0  0  0  0  0  0  0  0  0
    2.7932    0.5324    0.0013 C   0  0  0  0  0  0  0  0  0  0  0  0
    1.4035    0.1631   -0.0052 C   0  0  0  0  0  0  0  0  0  0  0  0
    0.8157   -1.0764    0.0232 C   0  0  0  0  0  0  0  0  0  0  0  0
   -0.5906   -1.0580    0.0096 C   0  0  0  0  0  0  0  0  0  0  0  0
   -1.3962   -2.3157    0.0164 C   0  0  0  0  0  0  0  0  0  0  0  0
   -1.1003    0.2251   -0.0281 C   0  0  0  0  0  0  0  0  0  0  0  0
   -2.4435    0.7391   -0.0554 C   0  0  0  0  0  0  0  0  0  0  0  0
   -3.5821    0.0690    0.1108 C   0  0  0  0  0  0  0  0  0  0  0  0
    0.1876    1.3986   -0.0565 S   0  0  0  0  0  0  0  0  0  0  0  0
    4.8328    0.0291    0.0494 H   0  0  0  0  0  0  0  0  0  0  0  0
    3.6724   -1.3850    0.0858 H   0  0  0  0  0  0  0  0  0  0  0  0
    2.9821    1.5976   -0.0351 H   0  0  0  0  0  0  0  0  0  0  0  0
    1.3824   -1.9903    0.0513 H   0  0  0  0  0  0  0  0  0  0  0  0
   -0.7411   -3.1745   -0.1103 H   0  0  0  0  0  0  0  0  0  0  0  0
   -2.1255   -2.3099   -0.7922 H   0  0  0  0  0  0  0  0  0  0  0  0
   -1.9285   -2.4273    0.9609 H   0  0  0  0  0  0  0  0  0  0  0  0
   -2.4925    1.8091   -0.2209 H   0  0  0  0  0  0  0  0  0  0  0  0
   -3.6254   -0.9860    0.3036 H   0  0  0  0  0  0  0  0  0  0  0  0
   -4.5272    0.5825    0.0667 H   0  0  0  0  0  0  0  0  0  0  0  0
  1  2  2  0  0  0  0
  2  3  1  0  0  0  0
  3  4  4  0  0  0  0
  4  5  4  0  0  0  0
  5  6  1  0  0  0  0
  5  7  4  0  0  0  0
  7  8  1  0  0  0  0
  8  9  2  0  0  0  0
  3 10  1  0  0  0  0
  7 10  1  0  0  0  0
  1 11  1  0  0  0  0
  1 12  1  0  0  0  0
  2 13  1  0  0  0  0
  4 14  1  0  0  0  0
  6 15  1  0  0  0  0
  6 16  1  0  0  0  0
  6 17  1  0  0  0  0
  8 18  1  0  0  0  0
  9 19  1  0  0  0  0
  9 20  1  0  0  0  0
M  END
