
  xtb     02032211353D
 xtb: 6.4.1 (23d549d)
 23 23  0     0  0            999 V2000
   -3.3613    2.0679    0.0451 C   0  0  0  0  0  0  0  0  0  0  0  0
   -2.8824    0.8311    0.0686 C   0  0  0  0  0  0  0  0  0  0  0  0
   -1.4766    0.4401    0.0103 C   0  0  0  0  0  0  0  0  0  0  0  0
   -0.4205    1.3507   -0.0546 C   0  0  0  0  0  0  0  0  0  0  0  0
    0.8801    0.8687   -0.1073 C   0  0  0  0  0  0  0  0  0  0  0  0
    2.0489    1.8204   -0.1845 C   0  0  0  0  0  0  0  0  0  0  0  0
    3.2665    1.2711    0.2528 O   0  0  0  0  0  0  0  0  0  0  0  0
    1.0814   -0.5030   -0.0944 C   0  0  0  0  0  0  0  0  0  0  0  0
   -0.0273   -1.3496   -0.0221 C   0  0  0  0  0  0  0  0  0  0  0  0
    0.0686   -2.8062    0.0035 C   0  0  0  0  0  0  0  0  0  0  0  0
    1.1823   -3.5247   -0.0556 C   0  0  0  0  0  0  0  0  0  0  0  0
   -1.2667   -0.8732    0.0308 N   0  0  0  0  0  0  0  0  0  0  0  0
   -4.4200    2.2578    0.0916 H   0  0  0  0  0  0  0  0  0  0  0  0
   -2.7312    2.9388   -0.0222 H   0  0  0  0  0  0  0  0  0  0  0  0
   -3.5544   -0.0137    0.1338 H   0  0  0  0  0  0  0  0  0  0  0  0
   -0.6033    2.4135   -0.0626 H   0  0  0  0  0  0  0  0  0  0  0  0
    1.8111    2.7384    0.3746 H   0  0  0  0  0  0  0  0  0  0  0  0
    2.2153    2.0991   -1.2310 H   0  0  0  0  0  0  0  0  0  0  0  0
    3.1669    0.9840    1.1676 H   0  0  0  0  0  0  0  0  0  0  0  0
    2.0841   -0.8962   -0.1464 H   0  0  0  0  0  0  0  0  0  0  0  0
   -0.8940   -3.2938    0.0766 H   0  0  0  0  0  0  0  0  0  0  0  0
    2.1611   -3.0823   -0.1331 H   0  0  0  0  0  0  0  0  0  0  0  0
    1.1543   -4.6007   -0.0313 H   0  0  0  0  0  0  0  0  0  0  0  0
  1  2  2  0  0  0  0
  2  3  1  0  0  0  0
  3  4  4  0  0  0  0
  4  5  4  0  0  0  0
  5  6  1  0  0  0  0
  6  7  1  0  0  0  0
  5  8  4  0  0  0  0
  8  9  4  0  0  0  0
  9 10  1  0  0  0  0
 10 11  2  0  0  0  0
  3 12  4  0  0  0  0
  9 12  4  0  0  0  0
  1 13  1  0  0  0  0
  1 14  1  0  0  0  0
  2 15  1  0  0  0  0
  4 16  1  0  0  0  0
  6 17  1  0  0  0  0
  6 18  1  0  0  0  0
  7 19  1  0  0  0  0
  8 20  1  0  0  0  0
 10 21  1  0  0  0  0
 11 22  1  0  0  0  0
 11 23  1  0  0  0  0
M  END
