
  xtb     02032211353D
 xtb: 6.4.1 (23d549d)
 24 24  0     0  0            999 V2000
    4.0336    0.5441    0.1687 C   0  0  0  0  0  0  0  0  0  0  0  0
    3.2846   -0.5194   -0.1036 C   0  0  0  0  0  0  0  0  0  0  0  0
    1.8443   -0.5502   -0.0858 C   0  0  0  0  0  0  0  0  0  0  0  0
    1.1655   -1.7215   -0.0152 N   0  0  0  0  0  0  0  0  0  0  0  0
   -0.1595   -1.5587    0.0146 N   0  0  0  0  0  0  0  0  0  0  0  0
   -0.3603   -0.2505   -0.0411 C   0  0  0  0  0  0  0  0  0  0  0  0
   -1.5963    0.3499   -0.0932 N   0  0  0  0  0  0  0  0  0  0  0  0
   -2.8566   -0.1829   -0.0107 C   0  0  0  0  0  0  0  0  0  0  0  0
   -2.9419   -1.6602    0.2323 C   0  0  0  0  0  0  0  0  0  0  0  0
   -3.8151    0.5498   -0.1251 O   0  0  0  0  0  0  0  0  0  0  0  0
    0.8757    0.4540   -0.1045 C   0  0  0  0  0  0  0  0  0  0  0  0
    1.0724    1.8828   -0.2450 C   0  0  0  0  0  0  0  0  0  0  0  0
    0.3504    2.8182    0.3607 C   0  0  0  0  0  0  0  0  0  0  0  0
    5.1077    0.4954    0.1288 H   0  0  0  0  0  0  0  0  0  0  0  0
    3.6018    1.4867    0.4548 H   0  0  0  0  0  0  0  0  0  0  0  0
    3.7555   -1.4647   -0.3471 H   0  0  0  0  0  0  0  0  0  0  0  0
    1.5511   -2.6491    0.0554 H   0  0  0  0  0  0  0  0  0  0  0  0
   -1.5691    1.3495   -0.2638 H   0  0  0  0  0  0  0  0  0  0  0  0
   -2.4817   -2.1931   -0.5954 H   0  0  0  0  0  0  0  0  0  0  0  0
   -3.9854   -1.9452    0.3293 H   0  0  0  0  0  0  0  0  0  0  0  0
   -2.3926   -1.9210    1.1327 H   0  0  0  0  0  0  0  0  0  0  0  0
    1.8776    2.1700   -0.9111 H   0  0  0  0  0  0  0  0  0  0  0  0
   -0.4221    2.5823    1.0741 H   0  0  0  0  0  0  0  0  0  0  0  0
    0.5363    3.8651    0.1929 H   0  0  0  0  0  0  0  0  0  0  0  0
  1  2  2  0  0  0  0
  2  3  1  0  0  0  0
  3  4  4  0  0  0  0
  4  5  1  0  0  0  0
  5  6  4  0  0  0  0
  6  7  1  0  0  0  0
  7  8  1  0  0  0  0
  8  9  1  0  0  0  0
  8 10  2  0  0  0  0
  3 11  4  0  0  0  0
  6 11  4  0  0  0  0
 11 12  1  0  0  0  0
 12 13  2  0  0  0  0
  1 14  1  0  0  0  0
  1 15  1  0  0  0  0
  2 16  1  0  0  0  0
  4 17  1  0  0  0  0
  7 18  1  0  0  0  0
  9 19  1  0  0  0  0
  9 20  1  0  0  0  0
  9 21  1  0  0  0  0
 12 22  1  0  0  0  0
 13 23  1  0  0  0  0
 13 24  1  0  0  0  0
M  END
