
 OpenBabel02032210523D

 17 17  0  0  0  0  0  0  0  0999 V2000
    1.2834   -0.3170   -0.6222 C   0  0  0  0  0  0  0  0  0  0  0  0
    2.4282   -0.0425    0.0120 C   0  0  0  0  0  0  0  0  0  0  0  0
    3.1856   -1.0427    0.7914 C   0  0  0  0  0  0  0  0  0  0  0  0
    2.8690   -2.3839    0.9995 C   0  0  0  0  0  0  0  0  0  0  0  0
    3.8052   -3.0590    1.7937 C   0  0  0  0  0  0  0  0  0  0  0  0
    4.8626   -2.2492    2.2134 C   0  0  0  0  0  0  0  0  0  0  0  0
    6.0283   -2.6027    3.0558 C   0  0  0  0  0  0  0  0  0  0  0  0
    6.2695   -3.8136    3.5795 C   0  0  0  0  0  0  0  0  0  0  0  0
    5.4409   -4.8700    3.3824 F   0  0  0  0  0  0  0  0  0  0  0  0
    7.3822   -3.9976    4.3372 F   0  0  0  0  0  0  0  0  0  0  0  0
    4.6226   -0.7045    1.5926 S   0  0  0  0  0  0  0  0  0  0  0  0
    0.7764    0.4654   -1.1778 H   0  0  0  0  0  0  0  0  0  0  0  0
    0.8364   -1.3040   -0.6019 H   0  0  0  0  0  0  0  0  0  0  0  0
    2.8231    0.9673   -0.0473 H   0  0  0  0  0  0  0  0  0  0  0  0
    1.9929   -2.8728    0.5968 H   0  0  0  0  0  0  0  0  0  0  0  0
    3.6899   -4.1034    2.0385 H   0  0  0  0  0  0  0  0  0  0  0  0
    6.7436   -1.8123    3.2639 H   0  0  0  0  0  0  0  0  0  0  0  0
  1  2  2  0  0  0  0
  1 12  1  0  0  0  0
  1 13  1  0  0  0  0
  2  3  1  0  0  0  0
  2 14  1  0  0  0  0
  3  4  2  0  0  0  0
  3 11  1  0  0  0  0
  4  5  1  0  0  0  0
  4 15  1  0  0  0  0
  5  6  2  0  0  0  0
  5 16  1  0  0  0  0
  6  7  1  0  0  0  0
  6 11  1  0  0  0  0
  7  8  2  0  0  0  0
  7 17  1  0  0  0  0
  8  9  1  0  0  0  0
  8 10  1  0  0  0  0
M  END
