
 OpenBabel02012214013D

 23 23  0  0  0  0  0  0  0  0999 V2000
    1.0690   -0.5641    0.5961 C   0  0  0  0  0  0  0  0  0  0  0  0
    2.2480    0.1424    0.1438 N   0  0  0  0  0  0  0  0  0  0  0  0
    3.0050    1.0239    0.9831 C   0  0  0  0  0  0  0  0  0  0  0  0
    2.6596    1.2002    2.3395 C   0  0  0  0  0  0  0  0  0  0  0  0
    3.3872    2.0649    3.1577 C   0  0  0  0  0  0  0  0  0  0  0  0
    4.4746    2.7779    2.6446 C   0  0  0  0  0  0  0  0  0  0  0  0
    5.2566    3.7182    3.5146 C   0  0  0  0  0  0  0  0  0  0  0  0
    4.8335    2.6130    1.3025 C   0  0  0  0  0  0  0  0  0  0  0  0
    4.1134    1.7434    0.4638 C   0  0  0  0  0  0  0  0  0  0  0  0
    4.5397    1.6046   -0.9743 C   0  0  0  0  0  0  0  0  0  0  0  0
    0.6507   -1.1726   -0.2337 H   0  0  0  0  0  0  0  0  0  0  0  0
    0.2958    0.1638    0.9216 H   0  0  0  0  0  0  0  0  0  0  0  0
    1.3277   -1.2433    1.4354 H   0  0  0  0  0  0  0  0  0  0  0  0
    2.5242   -0.0001   -0.8378 H   0  0  0  0  0  0  0  0  0  0  0  0
    1.8247    0.6727    2.7792 H   0  0  0  0  0  0  0  0  0  0  0  0
    3.0956    2.1784    4.1955 H   0  0  0  0  0  0  0  0  0  0  0  0
    4.8576    3.7433    4.5510 H   0  0  0  0  0  0  0  0  0  0  0  0
    5.2032    4.7442    3.0939 H   0  0  0  0  0  0  0  0  0  0  0  0
    6.3187    3.3964    3.5541 H   0  0  0  0  0  0  0  0  0  0  0  0
    5.6780    3.1687    0.9108 H   0  0  0  0  0  0  0  0  0  0  0  0
    5.4184    2.2429   -1.2091 H   0  0  0  0  0  0  0  0  0  0  0  0
    3.7085    1.9111   -1.6441 H   0  0  0  0  0  0  0  0  0  0  0  0
    4.8186    0.5510   -1.1848 H   0  0  0  0  0  0  0  0  0  0  0  0
  1  2  1  0  0  0  0
  1 11  1  0  0  0  0
  1 12  1  0  0  0  0
  1 13  1  0  0  0  0
  2  3  1  0  0  0  0
  2 14  1  0  0  0  0
  3  4  1  0  0  0  0
  3  9  2  0  0  0  0
  4  5  2  0  0  0  0
  4 15  1  0  0  0  0
  5  6  1  0  0  0  0
  5 16  1  0  0  0  0
  6  7  1  0  0  0  0
  6  8  2  0  0  0  0
  7 17  1  0  0  0  0
  7 18  1  0  0  0  0
  7 19  1  0  0  0  0
  8  9  1  0  0  0  0
  8 20  1  0  0  0  0
  9 10  1  0  0  0  0
 10 21  1  0  0  0  0
 10 22  1  0  0  0  0
 10 23  1  0  0  0  0
M  END
