
  xtb     02012214013D
 xtb: 6.4.1 (23d549d)
 23 23  0     0  0            999 V2000
    1.7875    0.4722   -1.0831 c   0  0  0  0  0  0  0  0  0  0  0  0
    2.5563   -0.0130    0.0493 n   0  0  0  0  0  0  0  0  0  0  0  0
    3.1807    0.9451    0.8719 c   0  0  0  0  0  0  0  0  0  0  0  0
    2.7658    1.1063    2.1912 c   0  0  0  0  0  0  0  0  0  0  0  0
    3.3816    2.0112    3.0342 c   0  0  0  0  0  0  0  0  0  0  0  0
    4.4318    2.7915    2.5764 c   0  0  0  0  0  0  0  0  0  0  0  0
    5.1032    3.8009    3.4589 c   0  0  0  0  0  0  0  0  0  0  0  0
    4.8660    2.6036    1.2705 c   0  0  0  0  0  0  0  0  0  0  0  0
    4.2759    1.6887    0.4133 c   0  0  0  0  0  0  0  0  0  0  0  0
    4.8479    1.4848   -0.9584 c   0  0  0  0  0  0  0  0  0  0  0  0
    1.4543   -0.3846   -1.6685 h   0  0  0  0  0  0  0  0  0  0  0  0
    2.4091    1.1040   -1.7108 h   0  0  0  0  0  0  0  0  0  0  0  0
    0.9051    1.0540   -0.7811 h   0  0  0  0  0  0  0  0  0  0  0  0
    1.9748   -0.6244    0.6148 h   0  0  0  0  0  0  0  0  0  0  0  0
    1.9429    0.5073    2.5601 h   0  0  0  0  0  0  0  0  0  0  0  0
    3.0345    2.1146    4.0526 h   0  0  0  0  0  0  0  0  0  0  0  0
    4.6451    3.8208    4.4447 h   0  0  0  0  0  0  0  0  0  0  0  0
    5.0297    4.7961    3.0217 h   0  0  0  0  0  0  0  0  0  0  0  0
    6.1608    3.5652    3.5724 h   0  0  0  0  0  0  0  0  0  0  0  0
    5.7073    3.1817    0.9121 h   0  0  0  0  0  0  0  0  0  0  0  0
    5.9222    1.6586   -0.9430 h   0  0  0  0  0  0  0  0  0  0  0  0
    4.4112    2.1820   -1.6752 h   0  0  0  0  0  0  0  0  0  0  0  0
    4.6584    0.4694   -1.2972 h   0  0  0  0  0  0  0  0  0  0  0  0
  1  2  1  0  0  0  0
  2  3  1  0  0  0  0
  3  4  4  0  0  0  0
  4  5  4  0  0  0  0
  5  6  4  0  0  0  0
  6  7  1  0  0  0  0
  6  8  4  0  0  0  0
  3  9  4  0  0  0  0
  8  9  4  0  0  0  0
  9 10  1  0  0  0  0
  1 11  1  0  0  0  0
  1 12  1  0  0  0  0
  1 13  1  0  0  0  0
  2 14  1  0  0  0  0
  4 15  1  0  0  0  0
  5 16  1  0  0  0  0
  7 17  1  0  0  0  0
  7 18  1  0  0  0  0
  7 19  1  0  0  0  0
  8 20  1  0  0  0  0
 10 21  1  0  0  0  0
 10 22  1  0  0  0  0
 10 23  1  0  0  0  0
M  END
