
 OpenBabel02032210473D

 42 45  0  0  0  0  0  0  0  0999 V2000
    0.8971    0.1513    0.0334 C   0  0  0  0  0  0  0  0  0  0  0  0
    2.3965    0.0994    0.0602 C   0  0  0  0  0  0  0  0  0  0  0  0
    3.1642    1.2733    0.0583 C   0  0  0  0  0  0  0  0  0  0  0  0
    4.5798    1.2091    0.0869 C   0  0  0  0  0  0  0  0  0  0  0  0
    5.5998    2.2083    0.1051 C   0  0  0  0  0  0  0  0  0  0  0  0
    5.5689    3.6238    0.0981 C   0  0  0  0  0  0  0  0  0  0  0  0
    6.7603    4.3647    0.0696 C   0  0  0  0  0  0  0  0  0  0  0  0
    6.7448    5.8654    0.0603 C   0  0  0  0  0  0  0  0  0  0  0  0
    7.9773    3.6937    0.0241 C   0  0  0  0  0  0  0  0  0  0  0  0
    8.0328    2.2986    0.0191 C   0  0  0  0  0  0  0  0  0  0  0  0
    6.8334    1.5557    0.1016 C   0  0  0  0  0  0  0  0  0  0  0  0
    6.5885    0.1748    0.1117 N   0  0  0  0  0  0  0  0  0  0  0  0
    7.6005   -0.8425    0.0855 C   0  0  0  0  0  0  0  0  0  0  0  0
    8.8110   -0.6607    0.7639 C   0  0  0  0  0  0  0  0  0  0  0  0
    9.8474   -1.5900    0.6299 C   0  0  0  0  0  0  0  0  0  0  0  0
    9.6775   -2.7450   -0.1408 C   0  0  0  0  0  0  0  0  0  0  0  0
   10.8268   -3.6324   -0.3450 C   0  0  0  0  0  0  0  0  0  0  0  0
   10.7855   -4.9600   -0.4930 C   0  0  0  0  0  0  0  0  0  0  0  0
    9.6224   -5.6411   -0.4363 F   0  0  0  0  0  0  0  0  0  0  0  0
   11.9386   -5.6301   -0.7014 F   0  0  0  0  0  0  0  0  0  0  0  0
    8.4449   -2.9543   -0.7687 C   0  0  0  0  0  0  0  0  0  0  0  0
    7.4184   -2.0078   -0.6672 C   0  0  0  0  0  0  0  0  0  0  0  0
    5.2044   -0.0411    0.0996 C   0  0  0  0  0  0  0  0  0  0  0  0
    4.4346   -1.2226    0.1528 C   0  0  0  0  0  0  0  0  0  0  0  0
    3.0403   -1.1342    0.1080 C   0  0  0  0  0  0  0  0  0  0  0  0
    0.5282    1.1819    0.0202 H   0  0  0  0  0  0  0  0  0  0  0  0
    0.4896   -0.3398    0.9234 H   0  0  0  0  0  0  0  0  0  0  0  0
    0.5172   -0.3552   -0.8599 H   0  0  0  0  0  0  0  0  0  0  0  0
    2.6780    2.2450    0.0378 H   0  0  0  0  0  0  0  0  0  0  0  0
    4.6082    4.1334    0.1060 H   0  0  0  0  0  0  0  0  0  0  0  0
    5.7244    6.2598    0.0673 H   0  0  0  0  0  0  0  0  0  0  0  0
    7.2457    6.2421   -0.8386 H   0  0  0  0  0  0  0  0  0  0  0  0
    7.2629    6.2518    0.9450 H   0  0  0  0  0  0  0  0  0  0  0  0
    8.9094    4.2558   -0.0169 H   0  0  0  0  0  0  0  0  0  0  0  0
    9.0018    1.8190   -0.0712 H   0  0  0  0  0  0  0  0  0  0  0  0
    8.9720    0.1935    1.4170 H   0  0  0  0  0  0  0  0  0  0  0  0
   10.7933   -1.3936    1.1315 H   0  0  0  0  0  0  0  0  0  0  0  0
   11.7992   -3.1482   -0.3877 H   0  0  0  0  0  0  0  0  0  0  0  0
    8.2749   -3.8353   -1.3848 H   0  0  0  0  0  0  0  0  0  0  0  0
    6.5174   -2.1769   -1.2499 H   0  0  0  0  0  0  0  0  0  0  0  0
    4.8921   -2.2030    0.2389 H   0  0  0  0  0  0  0  0  0  0  0  0
    2.4556   -2.0526    0.1225 H   0  0  0  0  0  0  0  0  0  0  0  0
  1  2  1  0  0  0  0
  1 26  1  0  0  0  0
  1 27  1  0  0  0  0
  1 28  1  0  0  0  0
  2  3  1  0  0  0  0
  2 25  2  0  0  0  0
  3  4  2  0  0  0  0
  3 29  1  0  0  0  0
  4  5  1  0  0  0  0
  4 23  1  0  0  0  0
  5  6  2  0  0  0  0
  5 11  1  0  0  0  0
  6  7  1  0  0  0  0
  6 30  1  0  0  0  0
  7  8  1  0  0  0  0
  7  9  2  0  0  0  0
  8 31  1  0  0  0  0
  8 32  1  0  0  0  0
  8 33  1  0  0  0  0
  9 10  1  0  0  0  0
  9 34  1  0  0  0  0
 10 11  2  0  0  0  0
 10 35  1  0  0  0  0
 11 12  1  0  0  0  0
 12 13  1  0  0  0  0
 12 23  1  0  0  0  0
 13 14  1  0  0  0  0
 13 22  2  0  0  0  0
 14 15  2  0  0  0  0
 14 36  1  0  0  0  0
 15 16  1  0  0  0  0
 15 37  1  0  0  0  0
 16 17  1  0  0  0  0
 16 21  2  0  0  0  0
 17 18  2  0  0  0  0
 17 38  1  0  0  0  0
 18 19  1  0  0  0  0
 18 20  1  0  0  0  0
 21 22  1  0  0  0  0
 21 39  1  0  0  0  0
 22 40  1  0  0  0  0
 23 24  2  0  0  0  0
 24 25  1  0  0  0  0
 24 41  1  0  0  0  0
 25 42  1  0  0  0  0
M  END
