
  xtb     02032211353D
 xtb: 6.4.1 (23d549d)
 48 48  0     0  0            999 V2000
    3.6795    0.7654    2.7038 C   0  0  0  0  0  0  0  0  0  0  0  0
    3.6240    0.1655    1.5207 C   0  0  0  0  0  0  0  0  0  0  0  0
    2.4499    0.1051    0.6758 C   0  0  0  0  0  0  0  0  0  0  0  0
    1.1431    0.1847    1.0818 C   0  0  0  0  0  0  0  0  0  0  0  0
    0.2997   -0.0134    0.0249 N   0  0  0  0  0  0  0  0  0  0  0  0
   -1.4728   -0.0225   -0.0052 Si  0  0  0  0  0  0  0  0  0  0  0  0
   -2.2297   -0.0147    1.7668 C   0  0  0  0  0  0  0  0  0  0  0  0
   -1.7933   -1.2018    2.6250 C   0  0  0  0  0  0  0  0  0  0  0  0
   -2.0059    1.2947    2.5234 C   0  0  0  0  0  0  0  0  0  0  0  0
   -2.0047    1.6232   -0.8577 C   0  0  0  0  0  0  0  0  0  0  0  0
   -1.3465    1.8770   -2.2130 C   0  0  0  0  0  0  0  0  0  0  0  0
   -3.5237    1.7423   -0.9812 C   0  0  0  0  0  0  0  0  0  0  0  0
   -2.0054   -1.6800   -0.8466 C   0  0  0  0  0  0  0  0  0  0  0  0
   -2.2485   -1.5832   -2.3523 C   0  0  0  0  0  0  0  0  0  0  0  0
   -1.0001   -2.8033   -0.5783 C   0  0  0  0  0  0  0  0  0  0  0  0
    1.0871   -0.2259   -1.0746 C   0  0  0  0  0  0  0  0  0  0  0  0
    2.4129   -0.1545   -0.7359 C   0  0  0  0  0  0  0  0  0  0  0  0
    3.5104   -0.2794   -1.6725 C   0  0  0  0  0  0  0  0  0  0  0  0
    4.7106    0.2731   -1.5435 C   0  0  0  0  0  0  0  0  0  0  0  0
    4.5743    0.7557    3.3024 H   0  0  0  0  0  0  0  0  0  0  0  0
    2.8362    1.2957    3.1132 H   0  0  0  0  0  0  0  0  0  0  0  0
    4.4984   -0.3416    1.1334 H   0  0  0  0  0  0  0  0  0  0  0  0
    0.7600    0.3397    2.0684 H   0  0  0  0  0  0  0  0  0  0  0  0
   -3.3130   -0.1135    1.6289 H   0  0  0  0  0  0  0  0  0  0  0  0
   -0.7142   -1.2262    2.7505 H   0  0  0  0  0  0  0  0  0  0  0  0
   -2.1064   -2.1390    2.1732 H   0  0  0  0  0  0  0  0  0  0  0  0
   -2.2471   -1.1388    3.6136 H   0  0  0  0  0  0  0  0  0  0  0  0
   -0.9486    1.4900    2.6775 H   0  0  0  0  0  0  0  0  0  0  0  0
   -2.4851    1.2506    3.5009 H   0  0  0  0  0  0  0  0  0  0  0  0
   -2.4285    2.1357    1.9806 H   0  0  0  0  0  0  0  0  0  0  0  0
   -1.6693    2.4328   -0.1985 H   0  0  0  0  0  0  0  0  0  0  0  0
   -1.6489    1.1322   -2.9435 H   0  0  0  0  0  0  0  0  0  0  0  0
   -0.2634    1.8590   -2.1246 H   0  0  0  0  0  0  0  0  0  0  0  0
   -1.6380    2.8556   -2.5925 H   0  0  0  0  0  0  0  0  0  0  0  0
   -3.9220    0.9744   -1.6393 H   0  0  0  0  0  0  0  0  0  0  0  0
   -3.7961    2.7126   -1.3941 H   0  0  0  0  0  0  0  0  0  0  0  0
   -4.0042    1.6389   -0.0120 H   0  0  0  0  0  0  0  0  0  0  0  0
   -2.9573   -1.9773   -0.3915 H   0  0  0  0  0  0  0  0  0  0  0  0
   -1.3357   -1.3140   -2.8775 H   0  0  0  0  0  0  0  0  0  0  0  0
   -3.0116   -0.8453   -2.5830 H   0  0  0  0  0  0  0  0  0  0  0  0
   -2.5830   -2.5449   -2.7400 H   0  0  0  0  0  0  0  0  0  0  0  0
   -0.0506   -2.5916   -1.0632 H   0  0  0  0  0  0  0  0  0  0  0  0
   -1.3781   -3.7472   -0.9687 H   0  0  0  0  0  0  0  0  0  0  0  0
   -0.8112   -2.9242    0.4843 H   0  0  0  0  0  0  0  0  0  0  0  0
    0.6504   -0.3910   -2.0391 H   0  0  0  0  0  0  0  0  0  0  0  0
    3.2792   -0.8513   -2.5643 H   0  0  0  0  0  0  0  0  0  0  0  0
    4.9689    0.8913   -0.7012 H   0  0  0  0  0  0  0  0  0  0  0  0
    5.4737    0.1406   -2.2921 H   0  0  0  0  0  0  0  0  0  0  0  0
  1  2  2  0  0  0  0
  2  3  1  0  0  0  0
  3  4  2  0  0  0  0
  4  5  4  0  0  0  0
  5  6  1  0  0  0  0
  6  7  1  0  0  0  0
  7  8  1  0  0  0  0
  7  9  1  0  0  0  0
  6 10  1  0  0  0  0
 10 11  1  0  0  0  0
 10 12  1  0  0  0  0
  6 13  1  0  0  0  0
 13 14  1  0  0  0  0
 13 15  1  0  0  0  0
  5 16  4  0  0  0  0
  3 17  1  0  0  0  0
 16 17  2  0  0  0  0
 17 18  1  0  0  0  0
 18 19  2  0  0  0  0
  1 20  1  0  0  0  0
  1 21  1  0  0  0  0
  2 22  1  0  0  0  0
  4 23  1  0  0  0  0
  7 24  1  0  0  0  0
  8 25  1  0  0  0  0
  8 26  1  0  0  0  0
  8 27  1  0  0  0  0
  9 28  1  0  0  0  0
  9 29  1  0  0  0  0
  9 30  1  0  0  0  0
 10 31  1  0  0  0  0
 11 32  1  0  0  0  0
 11 33  1  0  0  0  0
 11 34  1  0  0  0  0
 12 35  1  0  0  0  0
 12 36  1  0  0  0  0
 12 37  1  0  0  0  0
 13 38  1  0  0  0  0
 14 39  1  0  0  0  0
 14 40  1  0  0  0  0
 14 41  1  0  0  0  0
 15 42  1  0  0  0  0
 15 43  1  0  0  0  0
 15 44  1  0  0  0  0
 16 45  1  0  0  0  0
 18 46  1  0  0  0  0
 19 47  1  0  0  0  0
 19 48  1  0  0  0  0
M  END
