
 OpenBabel02012213453D

 12 11  0  0  0  0  0  0  0  0999 V2000
    1.0595    0.0495    0.0768 C   0  0  0  0  0  0  0  0  0  0  0  0
    2.5530    0.0580    0.0829 C   0  0  0  0  0  0  0  0  0  0  0  0
    3.2786    0.9732    0.7429 C   0  0  0  0  0  0  0  0  0  0  0  0
    4.7724    0.9981    0.7608 C   0  0  0  0  0  0  0  0  0  0  0  0
    0.6949   -0.7878   -0.5269 H   0  0  0  0  0  0  0  0  0  0  0  0
    0.6651    0.9725   -0.3590 H   0  0  0  0  0  0  0  0  0  0  0  0
    0.6651   -0.0725    1.0902 H   0  0  0  0  0  0  0  0  0  0  0  0
    3.0505   -0.7264   -0.4827 H   0  0  0  0  0  0  0  0  0  0  0  0
    2.7755    1.7557    1.3071 H   0  0  0  0  0  0  0  0  0  0  0  0
    5.2068    0.1832    0.1732 H   0  0  0  0  0  0  0  0  0  0  0  0
    5.1343    0.9077    1.7895 H   0  0  0  0  0  0  0  0  0  0  0  0
    5.1343    1.9456    0.3501 H   0  0  0  0  0  0  0  0  0  0  0  0
  1  2  1  0  0  0  0
  1  5  1  0  0  0  0
  1  6  1  0  0  0  0
  1  7  1  0  0  0  0
  2  3  2  0  0  0  0
  2  8  1  0  0  0  0
  3  4  1  0  0  0  0
  3  9  1  0  0  0  0
  4 10  1  0  0  0  0
  4 11  1  0  0  0  0
  4 12  1  0  0  0  0
M  END
