
  xtb     02012213453D
 xtb: 6.4.1 (23d549d)
 12 11  0     0  0            999 V2000
    1.0581    0.0406    0.0707 c   0  0  0  0  0  0  0  0  0  0  0  0
    2.5573    0.0628    0.0867 c   0  0  0  0  0  0  0  0  0  0  0  0
    3.2786    0.9620    0.7351 c   0  0  0  0  0  0  0  0  0  0  0  0
    4.7704    0.9997    0.7624 c   0  0  0  0  0  0  0  0  0  0  0  0
    0.6882   -0.7879   -0.5269 h   0  0  0  0  0  0  0  0  0  0  0  0
    0.6643    0.9679   -0.3446 h   0  0  0  0  0  0  0  0  0  0  0  0
    0.6642   -0.0606    1.0816 h   0  0  0  0  0  0  0  0  0  0  0  0
    3.0562   -0.7162   -0.4751 h   0  0  0  0  0  0  0  0  0  0  0  0
    2.7833    1.7435    1.2987 h   0  0  0  0  0  0  0  0  0  0  0  0
    5.1922    0.1867    0.1762 h   0  0  0  0  0  0  0  0  0  0  0  0
    5.1317    0.9179    1.7877 h   0  0  0  0  0  0  0  0  0  0  0  0
    5.1318    1.9467    0.3610 h   0  0  0  0  0  0  0  0  0  0  0  0
  1  2  1  0  0  0  0
  2  3  2  0  0  0  0
  3  4  1  0  0  0  0
  1  5  1  0  0  0  0
  1  6  1  0  0  0  0
  1  7  1  0  0  0  0
  2  8  1  0  0  0  0
  3  9  1  0  0  0  0
  4 10  1  0  0  0  0
  4 11  1  0  0  0  0
  4 12  1  0  0  0  0
M  END
