
  xtb     02032211363D
 xtb: 6.4.1 (23d549d)
 26 26  0     0  0            999 V2000
    4.2399    1.8387   -0.1519 C   0  0  0  0  0  0  0  0  0  0  0  0
    2.9445    2.1146   -0.0320 C   0  0  0  0  0  0  0  0  0  0  0  0
    1.9040    1.1196    0.0062 C   0  0  0  0  0  0  0  0  0  0  0  0
    0.5471    1.2635    0.1270 C   0  0  0  0  0  0  0  0  0  0  0  0
   -0.0098   -0.0419    0.1110 C   0  0  0  0  0  0  0  0  0  0  0  0
   -1.4464   -0.3061    0.2182 C   0  0  0  0  0  0  0  0  0  0  0  0
   -1.9866   -1.3876    0.2196 O   0  0  0  0  0  0  0  0  0  0  0  0
   -2.1264    0.8473    0.3311 O   0  0  0  0  0  0  0  0  0  0  0  0
   -3.5448    0.7498    0.4305 C   0  0  0  0  0  0  0  0  0  0  0  0
   -4.1931    0.6007   -0.9390 C   0  0  0  0  0  0  0  0  0  0  0  0
    1.0702   -0.9136   -0.0221 C   0  0  0  0  0  0  0  0  0  0  0  0
    1.2533   -2.3396   -0.1083 C   0  0  0  0  0  0  0  0  0  0  0  0
    0.3100   -3.2765   -0.0691 C   0  0  0  0  0  0  0  0  0  0  0  0
    2.2087   -0.1961   -0.0833 O   0  0  0  0  0  0  0  0  0  0  0  0
    4.9833    2.6155   -0.1755 H   0  0  0  0  0  0  0  0  0  0  0  0
    4.5896    0.8234   -0.2294 H   0  0  0  0  0  0  0  0  0  0  0  0
    2.5921    3.1334    0.0461 H   0  0  0  0  0  0  0  0  0  0  0  0
   -0.0007    2.1781    0.2174 H   0  0  0  0  0  0  0  0  0  0  0  0
   -3.8584    1.6767    0.9156 H   0  0  0  0  0  0  0  0  0  0  0  0
   -3.7995   -0.1074    1.0630 H   0  0  0  0  0  0  0  0  0  0  0  0
   -3.9029    1.4263   -1.5847 H   0  0  0  0  0  0  0  0  0  0  0  0
   -5.2740    0.5948   -0.8320 H   0  0  0  0  0  0  0  0  0  0  0  0
   -3.8790   -0.3339   -1.3972 H   0  0  0  0  0  0  0  0  0  0  0  0
    2.2963   -2.6133   -0.2150 H   0  0  0  0  0  0  0  0  0  0  0  0
   -0.7305   -3.0297    0.0370 H   0  0  0  0  0  0  0  0  0  0  0  0
    0.5699   -4.3185   -0.1445 H   0  0  0  0  0  0  0  0  0  0  0  0
  1  2  2  0  0  0  0
  2  3  1  0  0  0  0
  3  4  2  0  0  0  0
  4  5  4  0  0  0  0
  5  6  1  0  0  0  0
  6  7  2  0  0  0  0
  6  8  1  0  0  0  0
  8  9  1  0  0  0  0
  9 10  1  0  0  0  0
  5 11  4  0  0  0  0
 11 12  1  0  0  0  0
 12 13  2  0  0  0  0
  3 14  1  0  0  0  0
 11 14  1  0  0  0  0
  1 15  1  0  0  0  0
  1 16  1  0  0  0  0
  2 17  1  0  0  0  0
  4 18  1  0  0  0  0
  9 19  1  0  0  0  0
  9 20  1  0  0  0  0
 10 21  1  0  0  0  0
 10 22  1  0  0  0  0
 10 23  1  0  0  0  0
 12 24  1  0  0  0  0
 13 25  1  0  0  0  0
 13 26  1  0  0  0  0
M  END
