
  xtb     02032211343D
 xtb: 6.4.1 (23d549d)
 43 44  0     0  0            999 V2000
   -4.1914    2.5526   -1.0015 C   0  0  0  0  0  0  0  0  0  0  0  0
   -4.2376    1.4526    0.0583 C   0  0  0  0  0  0  0  0  0  0  0  0
   -5.4167    0.5121   -0.1938 C   0  0  0  0  0  0  0  0  0  0  0  0
   -3.0808    0.5900   -0.0601 O   0  0  0  0  0  0  0  0  0  0  0  0
   -1.8463    1.0751    0.1132 C   0  0  0  0  0  0  0  0  0  0  0  0
   -0.9247    0.0571   -0.0071 N   0  0  0  0  0  0  0  0  0  0  0  0
    0.4572    0.3063   -0.0715 C   0  0  0  0  0  0  0  0  0  0  0  0
    1.3443   -0.6362    0.4486 C   0  0  0  0  0  0  0  0  0  0  0  0
    2.7061   -0.4334    0.3876 C   0  0  0  0  0  0  0  0  0  0  0  0
    3.2295    0.7242   -0.1927 C   0  0  0  0  0  0  0  0  0  0  0  0
    4.6511    1.0060   -0.2879 C   0  0  0  0  0  0  0  0  0  0  0  0
    5.6701    0.2605    0.1142 C   0  0  0  0  0  0  0  0  0  0  0  0
    5.6340   -0.9308    0.7020 F   0  0  0  0  0  0  0  0  0  0  0  0
    6.9434    0.6289   -0.0299 F   0  0  0  0  0  0  0  0  0  0  0  0
    2.3326    1.6624   -0.7092 C   0  0  0  0  0  0  0  0  0  0  0  0
    0.9699    1.4609   -0.6578 C   0  0  0  0  0  0  0  0  0  0  0  0
   -1.3611   -1.2945   -0.0652 C   0  0  0  0  0  0  0  0  0  0  0  0
   -0.9968   -2.0822   -1.1503 C   0  0  0  0  0  0  0  0  0  0  0  0
   -1.4103   -3.4003   -1.2145 C   0  0  0  0  0  0  0  0  0  0  0  0
   -2.1894   -3.9363   -0.2028 C   0  0  0  0  0  0  0  0  0  0  0  0
   -2.5481   -3.1516    0.8806 C   0  0  0  0  0  0  0  0  0  0  0  0
   -2.1318   -1.8352    0.9564 C   0  0  0  0  0  0  0  0  0  0  0  0
   -1.5567    2.2241    0.3357 O   0  0  0  0  0  0  0  0  0  0  0  0
   -4.3152    2.0465    1.4642 C   0  0  0  0  0  0  0  0  0  0  0  0
   -4.0813    2.1125   -1.9905 H   0  0  0  0  0  0  0  0  0  0  0  0
   -3.3534    3.2188   -0.8164 H   0  0  0  0  0  0  0  0  0  0  0  0
   -5.1127    3.1272   -0.9719 H   0  0  0  0  0  0  0  0  0  0  0  0
   -5.3345    0.0705   -1.1833 H   0  0  0  0  0  0  0  0  0  0  0  0
   -6.3514    1.0600   -0.1236 H   0  0  0  0  0  0  0  0  0  0  0  0
   -5.4164   -0.2900    0.5396 H   0  0  0  0  0  0  0  0  0  0  0  0
    0.9583   -1.5340    0.9079 H   0  0  0  0  0  0  0  0  0  0  0  0
    3.3614   -1.1809    0.8033 H   0  0  0  0  0  0  0  0  0  0  0  0
    4.9255    1.9457   -0.7454 H   0  0  0  0  0  0  0  0  0  0  0  0
    2.7138    2.5633   -1.1667 H   0  0  0  0  0  0  0  0  0  0  0  0
    0.3017    2.2020   -1.0630 H   0  0  0  0  0  0  0  0  0  0  0  0
   -0.3893   -1.6563   -1.9352 H   0  0  0  0  0  0  0  0  0  0  0  0
   -1.1270   -4.0087   -2.0603 H   0  0  0  0  0  0  0  0  0  0  0  0
   -2.5142   -4.9644   -0.2571 H   0  0  0  0  0  0  0  0  0  0  0  0
   -3.1486   -3.5691    1.6752 H   0  0  0  0  0  0  0  0  0  0  0  0
   -2.4002   -1.2222    1.8034 H   0  0  0  0  0  0  0  0  0  0  0  0
   -5.2277    2.6272    1.5652 H   0  0  0  0  0  0  0  0  0  0  0  0
   -3.4626    2.6948    1.6470 H   0  0  0  0  0  0  0  0  0  0  0  0
   -4.3204    1.2515    2.2072 H   0  0  0  0  0  0  0  0  0  0  0  0
  1  2  1  0  0  0  0
  2  3  1  0  0  0  0
  2  4  1  0  0  0  0
  4  5  1  0  0  0  0
  5  6  1  0  0  0  0
  6  7  1  0  0  0  0
  7  8  4  0  0  0  0
  8  9  4  0  0  0  0
  9 10  4  0  0  0  0
 10 11  1  0  0  0  0
 11 12  2  0  0  0  0
 12 13  1  0  0  0  0
 12 14  1  0  0  0  0
 10 15  4  0  0  0  0
  7 16  4  0  0  0  0
 15 16  4  0  0  0  0
  6 17  1  0  0  0  0
 17 18  4  0  0  0  0
 18 19  4  0  0  0  0
 19 20  4  0  0  0  0
 20 21  4  0  0  0  0
 17 22  4  0  0  0  0
 21 22  4  0  0  0  0
  5 23  2  0  0  0  0
  2 24  1  0  0  0  0
  1 25  1  0  0  0  0
  1 26  1  0  0  0  0
  1 27  1  0  0  0  0
  3 28  1  0  0  0  0
  3 29  1  0  0  0  0
  3 30  1  0  0  0  0
  8 31  1  0  0  0  0
  9 32  1  0  0  0  0
 11 33  1  0  0  0  0
 15 34  1  0  0  0  0
 16 35  1  0  0  0  0
 18 36  1  0  0  0  0
 19 37  1  0  0  0  0
 20 38  1  0  0  0  0
 21 39  1  0  0  0  0
 22 40  1  0  0  0  0
 24 41  1  0  0  0  0
 24 42  1  0  0  0  0
 24 43  1  0  0  0  0
M  END
