
  xtb     02032211353D
 xtb: 6.4.1 (23d549d)
 26 26  0     0  0            999 V2000
    3.4464    1.7265    0.0378 C   0  0  0  0  0  0  0  0  0  0  0  0
    2.9538    0.5397   -0.2959 C   0  0  0  0  0  0  0  0  0  0  0  0
    1.5718    0.1161   -0.1115 C   0  0  0  0  0  0  0  0  0  0  0  0
    0.5251    1.0341   -0.0370 C   0  0  0  0  0  0  0  0  0  0  0  0
   -0.7905    0.6315    0.1374 C   0  0  0  0  0  0  0  0  0  0  0  0
   -1.8522    1.6243    0.3065 C   0  0  0  0  0  0  0  0  0  0  0  0
   -1.9315    2.7604   -0.3729 C   0  0  0  0  0  0  0  0  0  0  0  0
   -1.0189   -0.7611    0.1793 C   0  0  0  0  0  0  0  0  0  0  0  0
   -2.2586   -1.3419    0.2886 N   0  0  0  0  0  0  0  0  0  0  0  0
   -3.4415   -0.7968   -0.2537 N   0  0  0  0  0  0  0  0  0  0  0  0
   -0.0214   -1.6409    0.1353 N   0  0  0  0  0  0  0  0  0  0  0  0
    1.2314   -1.2405    0.0157 C   0  0  0  0  0  0  0  0  0  0  0  0
    2.2599   -2.3295    0.0282 C   0  0  0  0  0  0  0  0  0  0  0  0
    4.4802    1.9739   -0.1330 H   0  0  0  0  0  0  0  0  0  0  0  0
    2.8491    2.4903    0.5065 H   0  0  0  0  0  0  0  0  0  0  0  0
    3.6131   -0.1981   -0.7337 H   0  0  0  0  0  0  0  0  0  0  0  0
    0.7372    2.0911   -0.0976 H   0  0  0  0  0  0  0  0  0  0  0  0
   -2.5887    1.4005    1.0686 H   0  0  0  0  0  0  0  0  0  0  0  0
   -1.2240    3.0102   -1.1461 H   0  0  0  0  0  0  0  0  0  0  0  0
   -2.7147    3.4765   -0.1912 H   0  0  0  0  0  0  0  0  0  0  0  0
   -2.2131   -2.3480    0.1648 H   0  0  0  0  0  0  0  0  0  0  0  0
   -3.2318   -0.1558   -1.0170 H   0  0  0  0  0  0  0  0  0  0  0  0
   -3.9488   -0.2827    0.4637 H   0  0  0  0  0  0  0  0  0  0  0  0
    1.7673   -3.2774    0.2240 H   0  0  0  0  0  0  0  0  0  0  0  0
    3.0062   -2.1440    0.7983 H   0  0  0  0  0  0  0  0  0  0  0  0
    2.7668   -2.3888   -0.9343 H   0  0  0  0  0  0  0  0  0  0  0  0
  1  2  2  0  0  0  0
  2  3  1  0  0  0  0
  3  4  4  0  0  0  0
  4  5  4  0  0  0  0
  5  6  1  0  0  0  0
  6  7  2  0  0  0  0
  5  8  4  0  0  0  0
  8  9  1  0  0  0  0
  9 10  1  0  0  0  0
  8 11  4  0  0  0  0
  3 12  4  0  0  0  0
 11 12  4  0  0  0  0
 12 13  1  0  0  0  0
  1 14  1  0  0  0  0
  1 15  1  0  0  0  0
  2 16  1  0  0  0  0
  4 17  1  0  0  0  0
  6 18  1  0  0  0  0
  7 19  1  0  0  0  0
  7 20  1  0  0  0  0
  9 21  1  0  0  0  0
 10 22  1  0  0  0  0
 10 23  1  0  0  0  0
 13 24  1  0  0  0  0
 13 25  1  0  0  0  0
 13 26  1  0  0  0  0
M  END
