
  xtb     02032211043D
 xtb: 6.4.1 (23d549d)
 82 82  0     0  0            999 V2000
    1.3391   -0.7537    0.3916 c   0  0  0  0  0  0  0  0  0  0  0  0
    2.6289   -0.5114    0.5993 c   0  0  0  0  0  0  0  0  0  0  0  0
    3.2345    0.5767    1.3523 c   0  0  0  0  0  0  0  0  0  0  0  0
    4.6090    0.7611    1.2081 c   0  0  0  0  0  0  0  0  0  0  0  0
    5.3106    1.7585    1.8653 c   0  0  0  0  0  0  0  0  0  0  0  0
    6.6675    1.9161    1.7738 o   0  0  0  0  0  0  0  0  0  0  0  0
    7.3243    1.7055    0.5397 c   0  0  0  0  0  0  0  0  0  0  0  0
    7.6601    3.0345   -0.1480 c   0  0  0  0  0  0  0  0  0  0  0  0
    6.4367    3.9036   -0.4439 c   0  0  0  0  0  0  0  0  0  0  0  0
    5.4234    3.2494   -1.3809 c   0  0  0  0  0  0  0  0  0  0  0  0
    4.3366    4.2388   -1.7943 c   0  0  0  0  0  0  0  0  0  0  0  0
    3.2483    3.6136   -2.6678 c   0  0  0  0  0  0  0  0  0  0  0  0
    2.3979    2.5460   -1.9739 c   0  0  0  0  0  0  0  0  0  0  0  0
    1.6860    3.0109   -0.7041 c   0  0  0  0  0  0  0  0  0  0  0  0
    0.6877    4.1423   -0.9350 c   0  0  0  0  0  0  0  0  0  0  0  0
   -0.0691    4.4797    0.3440 c   0  0  0  0  0  0  0  0  0  0  0  0
    4.6174    2.6132    2.7424 c   0  0  0  0  0  0  0  0  0  0  0  0
    5.3500    3.6538    3.4474 c   0  0  0  0  0  0  0  0  0  0  0  0
    4.8911    4.4370    4.4178 c   0  0  0  0  0  0  0  0  0  0  0  0
    3.2439    2.4307    2.8945 c   0  0  0  0  0  0  0  0  0  0  0  0
    2.5411    1.4416    2.2257 c   0  0  0  0  0  0  0  0  0  0  0  0
    1.2028    1.2457    2.3813 o   0  0  0  0  0  0  0  0  0  0  0  0
    0.5063    1.9376    3.3969 c   0  0  0  0  0  0  0  0  0  0  0  0
   -0.8696    1.2943    3.5807 c   0  0  0  0  0  0  0  0  0  0  0  0
   -0.8317    0.0331    4.4463 c   0  0  0  0  0  0  0  0  0  0  0  0
   -0.1276   -1.1322    3.7535 c   0  0  0  0  0  0  0  0  0  0  0  0
    0.1531   -2.3218    4.6707 c   0  0  0  0  0  0  0  0  0  0  0  0
    1.0787   -2.0207    5.8543 c   0  0  0  0  0  0  0  0  0  0  0  0
    2.3751   -1.2898    5.4998 c   0  0  0  0  0  0  0  0  0  0  0  0
    3.2622   -2.0394    4.5098 c   0  0  0  0  0  0  0  0  0  0  0  0
    4.5826   -1.3067    4.2819 c   0  0  0  0  0  0  0  0  0  0  0  0
    5.4584   -2.0167    3.2581 c   0  0  0  0  0  0  0  0  0  0  0  0
    1.0265   -1.5994   -0.1987 h   0  0  0  0  0  0  0  0  0  0  0  0
    0.5617   -0.1307    0.7901 h   0  0  0  0  0  0  0  0  0  0  0  0
    3.3546   -1.1783    0.1451 h   0  0  0  0  0  0  0  0  0  0  0  0
    5.1383    0.0731    0.5642 h   0  0  0  0  0  0  0  0  0  0  0  0
    6.7347    1.0814   -0.1347 h   0  0  0  0  0  0  0  0  0  0  0  0
    8.2544    1.1755    0.7738 h   0  0  0  0  0  0  0  0  0  0  0  0
    8.1865    2.8056   -1.0772 h   0  0  0  0  0  0  0  0  0  0  0  0
    8.3390    3.5953    0.4975 h   0  0  0  0  0  0  0  0  0  0  0  0
    6.7859    4.8368   -0.8935 h   0  0  0  0  0  0  0  0  0  0  0  0
    5.9409    4.1587    0.4951 h   0  0  0  0  0  0  0  0  0  0  0  0
    4.9575    2.4025   -0.8771 h   0  0  0  0  0  0  0  0  0  0  0  0
    5.9337    2.8775   -2.2735 h   0  0  0  0  0  0  0  0  0  0  0  0
    4.7988    5.0583   -2.3518 h   0  0  0  0  0  0  0  0  0  0  0  0
    3.8867    4.6703   -0.8989 h   0  0  0  0  0  0  0  0  0  0  0  0
    3.7185    3.1598   -3.5445 h   0  0  0  0  0  0  0  0  0  0  0  0
    2.5932    4.4090   -3.0291 h   0  0  0  0  0  0  0  0  0  0  0  0
    3.0239    1.6885   -1.7189 h   0  0  0  0  0  0  0  0  0  0  0  0
    1.6482    2.1949   -2.6880 h   0  0  0  0  0  0  0  0  0  0  0  0
    2.4226    3.3216    0.0391 h   0  0  0  0  0  0  0  0  0  0  0  0
    1.1534    2.1542   -0.2861 h   0  0  0  0  0  0  0  0  0  0  0  0
   -0.0228    3.8451   -1.7102 h   0  0  0  0  0  0  0  0  0  0  0  0
    1.2096    5.0347   -1.2848 h   0  0  0  0  0  0  0  0  0  0  0  0
   -0.6106    3.6082    0.7063 h   0  0  0  0  0  0  0  0  0  0  0  0
   -0.7835    5.2819    0.1716 h   0  0  0  0  0  0  0  0  0  0  0  0
    0.6250    4.7997    1.1192 h   0  0  0  0  0  0  0  0  0  0  0  0
    6.3781    3.7586    3.1279 h   0  0  0  0  0  0  0  0  0  0  0  0
    3.8888    4.3690    4.8063 h   0  0  0  0  0  0  0  0  0  0  0  0
    5.5187    5.1826    4.8748 h   0  0  0  0  0  0  0  0  0  0  0  0
    2.7179    3.1061    3.5482 h   0  0  0  0  0  0  0  0  0  0  0  0
    0.3897    2.9923    3.1092 h   0  0  0  0  0  0  0  0  0  0  0  0
    1.0619    1.8931    4.3434 h   0  0  0  0  0  0  0  0  0  0  0  0
   -1.2763    1.0587    2.5961 h   0  0  0  0  0  0  0  0  0  0  0  0
   -1.5241    2.0311    4.0508 h   0  0  0  0  0  0  0  0  0  0  0  0
   -1.8553   -0.2584    4.6943 h   0  0  0  0  0  0  0  0  0  0  0  0
   -0.3239    0.2726    5.3819 h   0  0  0  0  0  0  0  0  0  0  0  0
    0.8096   -0.7864    3.3247 h   0  0  0  0  0  0  0  0  0  0  0  0
   -0.7518   -1.4750    2.9243 h   0  0  0  0  0  0  0  0  0  0  0  0
    0.5982   -3.1151    4.0665 h   0  0  0  0  0  0  0  0  0  0  0  0
   -0.7912   -2.7056    5.0665 h   0  0  0  0  0  0  0  0  0  0  0  0
    1.3301   -2.9696    6.3356 h   0  0  0  0  0  0  0  0  0  0  0  0
    0.5383   -1.4231    6.5924 h   0  0  0  0  0  0  0  0  0  0  0  0
    2.9382   -1.1315    6.4242 h   0  0  0  0  0  0  0  0  0  0  0  0
    2.1463   -0.3043    5.0915 h   0  0  0  0  0  0  0  0  0  0  0  0
    2.7472   -2.1396    3.5527 h   0  0  0  0  0  0  0  0  0  0  0  0
    3.4633   -3.0445    4.8891 h   0  0  0  0  0  0  0  0  0  0  0  0
    5.1227   -1.2266    5.2284 h   0  0  0  0  0  0  0  0  0  0  0  0
    4.3750   -0.2923    3.9334 h   0  0  0  0  0  0  0  0  0  0  0  0
    5.7230   -3.0139    3.6042 h   0  0  0  0  0  0  0  0  0  0  0  0
    6.3739   -1.4554    3.0867 h   0  0  0  0  0  0  0  0  0  0  0  0
    4.9292   -2.1115    2.3127 h   0  0  0  0  0  0  0  0  0  0  0  0
  1  2  2  0  0  0  0
  2  3  1  0  0  0  0
  3  4  4  0  0  0  0
  4  5  4  0  0  0  0
  5  6  1  0  0  0  0
  6  7  1  0  0  0  0
  7  8  1  0  0  0  0
  8  9  1  0  0  0  0
  9 10  1  0  0  0  0
 10 11  1  0  0  0  0
 11 12  1  0  0  0  0
 12 13  1  0  0  0  0
 13 14  1  0  0  0  0
 14 15  1  0  0  0  0
 15 16  1  0  0  0  0
  5 17  4  0  0  0  0
 17 18  1  0  0  0  0
 18 19  2  0  0  0  0
 17 20  4  0  0  0  0
  3 21  4  0  0  0  0
 20 21  4  0  0  0  0
 21 22  1  0  0  0  0
 22 23  1  0  0  0  0
 23 24  1  0  0  0  0
 24 25  1  0  0  0  0
 25 26  1  0  0  0  0
 26 27  1  0  0  0  0
 27 28  1  0  0  0  0
 28 29  1  0  0  0  0
 29 30  1  0  0  0  0
 30 31  1  0  0  0  0
 31 32  1  0  0  0  0
  1 33  1  0  0  0  0
  1 34  1  0  0  0  0
  2 35  1  0  0  0  0
  4 36  1  0  0  0  0
  7 37  1  0  0  0  0
  7 38  1  0  0  0  0
  8 39  1  0  0  0  0
  8 40  1  0  0  0  0
  9 41  1  0  0  0  0
  9 42  1  0  0  0  0
 10 43  1  0  0  0  0
 10 44  1  0  0  0  0
 11 45  1  0  0  0  0
 11 46  1  0  0  0  0
 12 47  1  0  0  0  0
 12 48  1  0  0  0  0
 13 49  1  0  0  0  0
 13 50  1  0  0  0  0
 14 51  1  0  0  0  0
 14 52  1  0  0  0  0
 15 53  1  0  0  0  0
 15 54  1  0  0  0  0
 16 55  1  0  0  0  0
 16 56  1  0  0  0  0
 16 57  1  0  0  0  0
 18 58  1  0  0  0  0
 19 59  1  0  0  0  0
 19 60  1  0  0  0  0
 20 61  1  0  0  0  0
 23 62  1  0  0  0  0
 23 63  1  0  0  0  0
 24 64  1  0  0  0  0
 24 65  1  0  0  0  0
 25 66  1  0  0  0  0
 25 67  1  0  0  0  0
 26 68  1  0  0  0  0
 26 69  1  0  0  0  0
 27 70  1  0  0  0  0
 27 71  1  0  0  0  0
 28 72  1  0  0  0  0
 28 73  1  0  0  0  0
 29 74  1  0  0  0  0
 29 75  1  0  0  0  0
 30 76  1  0  0  0  0
 30 77  1  0  0  0  0
 31 78  1  0  0  0  0
 31 79  1  0  0  0  0
 32 80  1  0  0  0  0
 32 81  1  0  0  0  0
 32 82  1  0  0  0  0
M  END
