
  xtb     02032211153D
 xtb: 6.4.1 (23d549d)
 41 41  0     0  0            999 V2000
    4.9093    8.0337   -6.0084 c   0  0  0  0  0  0  0  0  0  0  0  0
    4.1211    6.9840   -6.2282 c   0  0  0  0  0  0  0  0  0  0  0  0
    3.6799    6.0531   -5.2250 c   0  0  0  0  0  0  0  0  0  0  0  0
    3.9805    5.9863   -3.8886 c   0  0  0  0  0  0  0  0  0  0  0  0
    3.3305    4.9434   -3.2032 c   0  0  0  0  0  0  0  0  0  0  0  0
    3.4637    4.7358   -1.7273 c   0  0  0  0  0  0  0  0  0  0  0  0
    2.2777    5.3093   -0.9352 c   0  0  0  0  0  0  0  0  0  0  0  0
    2.1203    6.8258   -1.0879 c   0  0  0  0  0  0  0  0  0  0  0  0
    1.2268    7.2257   -2.2616 c   0  0  0  0  0  0  0  0  0  0  0  0
    1.2654    8.7292   -2.5223 c   0  0  0  0  0  0  0  0  0  0  0  0
    0.4216    9.1116   -3.7357 c   0  0  0  0  0  0  0  0  0  0  0  0
    0.5050   10.5970   -4.0883 c   0  0  0  0  0  0  0  0  0  0  0  0
   -0.1594   11.4977   -3.0534 c   0  0  0  0  0  0  0  0  0  0  0  0
    2.5263    4.1865   -4.0312 c   0  0  0  0  0  0  0  0  0  0  0  0
    1.7224    3.0497   -3.6796 c   0  0  0  0  0  0  0  0  0  0  0  0
    0.9026    2.4093   -4.5096 c   0  0  0  0  0  0  0  0  0  0  0  0
    2.5757    4.7852   -5.6645 s   0  0  0  0  0  0  0  0  0  0  0  0
    5.1978    8.6937   -6.8072 h   0  0  0  0  0  0  0  0  0  0  0  0
    5.2903    8.2690   -5.0299 h   0  0  0  0  0  0  0  0  0  0  0  0
    3.7539    6.7864   -7.2271 h   0  0  0  0  0  0  0  0  0  0  0  0
    4.6501    6.6740   -3.4041 h   0  0  0  0  0  0  0  0  0  0  0  0
    4.3815    5.2191   -1.3857 h   0  0  0  0  0  0  0  0  0  0  0  0
    3.5484    3.6684   -1.5087 h   0  0  0  0  0  0  0  0  0  0  0  0
    2.4388    5.0675    0.1180 h   0  0  0  0  0  0  0  0  0  0  0  0
    1.3559    4.8174   -1.2519 h   0  0  0  0  0  0  0  0  0  0  0  0
    3.1064    7.2780   -1.2149 h   0  0  0  0  0  0  0  0  0  0  0  0
    1.6920    7.2383   -0.1711 h   0  0  0  0  0  0  0  0  0  0  0  0
    0.1992    6.9178   -2.0530 h   0  0  0  0  0  0  0  0  0  0  0  0
    1.5467    6.7061   -3.1641 h   0  0  0  0  0  0  0  0  0  0  0  0
    2.2998    9.0342   -2.7000 h   0  0  0  0  0  0  0  0  0  0  0  0
    0.9086    9.2567   -1.6361 h   0  0  0  0  0  0  0  0  0  0  0  0
   -0.6213    8.8429   -3.5515 h   0  0  0  0  0  0  0  0  0  0  0  0
    0.7661    8.5285   -4.5939 h   0  0  0  0  0  0  0  0  0  0  0  0
    0.0186   10.7533   -5.0542 h   0  0  0  0  0  0  0  0  0  0  0  0
    1.5541   10.8813   -4.1984 h   0  0  0  0  0  0  0  0  0  0  0  0
   -1.1970   11.2053   -2.9065 h   0  0  0  0  0  0  0  0  0  0  0  0
   -0.1392   12.5336   -3.3849 h   0  0  0  0  0  0  0  0  0  0  0  0
    0.3535   11.4392   -2.0970 h   0  0  0  0  0  0  0  0  0  0  0  0
    1.8174    2.7191   -2.6536 h   0  0  0  0  0  0  0  0  0  0  0  0
    0.7838    2.7210   -5.5343 h   0  0  0  0  0  0  0  0  0  0  0  0
    0.3267    1.5586   -4.1912 h   0  0  0  0  0  0  0  0  0  0  0  0
  1  2  2  0  0  0  0
  2  3  1  0  0  0  0
  3  4  2  0  0  0  0
  4  5  4  0  0  0  0
  5  6  1  0  0  0  0
  6  7  1  0  0  0  0
  7  8  1  0  0  0  0
  8  9  1  0  0  0  0
  9 10  1  0  0  0  0
 10 11  1  0  0  0  0
 11 12  1  0  0  0  0
 12 13  1  0  0  0  0
  5 14  4  0  0  0  0
 14 15  1  0  0  0  0
 15 16  2  0  0  0  0
  3 17  1  0  0  0  0
 14 17  1  0  0  0  0
  1 18  1  0  0  0  0
  1 19  1  0  0  0  0
  2 20  1  0  0  0  0
  4 21  1  0  0  0  0
  6 22  1  0  0  0  0
  6 23  1  0  0  0  0
  7 24  1  0  0  0  0
  7 25  1  0  0  0  0
  8 26  1  0  0  0  0
  8 27  1  0  0  0  0
  9 28  1  0  0  0  0
  9 29  1  0  0  0  0
 10 30  1  0  0  0  0
 10 31  1  0  0  0  0
 11 32  1  0  0  0  0
 11 33  1  0  0  0  0
 12 34  1  0  0  0  0
 12 35  1  0  0  0  0
 13 36  1  0  0  0  0
 13 37  1  0  0  0  0
 13 38  1  0  0  0  0
 15 39  1  0  0  0  0
 16 40  1  0  0  0  0
 16 41  1  0  0  0  0
M  END
