
  xtb     02032211353D
 xtb: 6.4.1 (23d549d)
 23 23  0     0  0            999 V2000
   -3.3703    1.7707    0.0493 C   0  0  0  0  0  0  0  0  0  0  0  0
   -2.7782    0.5840    0.0751 C   0  0  0  0  0  0  0  0  0  0  0  0
   -1.3424    0.3242    0.0105 C   0  0  0  0  0  0  0  0  0  0  0  0
   -0.3758    1.3311   -0.0429 C   0  0  0  0  0  0  0  0  0  0  0  0
    0.9643    0.9759   -0.1039 C   0  0  0  0  0  0  0  0  0  0  0  0
    2.0372    2.0348   -0.1705 C   0  0  0  0  0  0  0  0  0  0  0  0
    3.3058    1.5956    0.2455 O   0  0  0  0  0  0  0  0  0  0  0  0
    1.2896   -0.3723   -0.1095 C   0  0  0  0  0  0  0  0  0  0  0  0
    0.2637   -1.3189   -0.0472 C   0  0  0  0  0  0  0  0  0  0  0  0
    0.5779   -2.7443   -0.0467 C   0  0  0  0  0  0  0  0  0  0  0  0
   -0.3446   -3.6959    0.0141 C   0  0  0  0  0  0  0  0  0  0  0  0
   -1.0146   -0.9640    0.0135 N   0  0  0  0  0  0  0  0  0  0  0  0
   -4.4419    1.8614    0.1001 H   0  0  0  0  0  0  0  0  0  0  0  0
   -2.8244    2.6962   -0.0245 H   0  0  0  0  0  0  0  0  0  0  0  0
   -3.3692   -0.3190    0.1449 H   0  0  0  0  0  0  0  0  0  0  0  0
   -0.6584    2.3718   -0.0354 H   0  0  0  0  0  0  0  0  0  0  0  0
    1.7189    2.9148    0.4097 H   0  0  0  0  0  0  0  0  0  0  0  0
    2.1659    2.3492   -1.2121 H   0  0  0  0  0  0  0  0  0  0  0  0
    3.2425    1.2784    1.1535 H   0  0  0  0  0  0  0  0  0  0  0  0
    2.3226   -0.6816   -0.1686 H   0  0  0  0  0  0  0  0  0  0  0  0
    1.6307   -2.9892   -0.1012 H   0  0  0  0  0  0  0  0  0  0  0  0
   -1.3879   -3.4370    0.0669 H   0  0  0  0  0  0  0  0  0  0  0  0
   -0.0892   -4.7416    0.0124 H   0  0  0  0  0  0  0  0  0  0  0  0
  1  2  2  0  0  0  0
  2  3  1  0  0  0  0
  3  4  4  0  0  0  0
  4  5  4  0  0  0  0
  5  6  1  0  0  0  0
  6  7  1  0  0  0  0
  5  8  4  0  0  0  0
  8  9  4  0  0  0  0
  9 10  1  0  0  0  0
 10 11  2  0  0  0  0
  3 12  4  0  0  0  0
  9 12  4  0  0  0  0
  1 13  1  0  0  0  0
  1 14  1  0  0  0  0
  2 15  1  0  0  0  0
  4 16  1  0  0  0  0
  6 17  1  0  0  0  0
  6 18  1  0  0  0  0
  7 19  1  0  0  0  0
  8 20  1  0  0  0  0
 10 21  1  0  0  0  0
 11 22  1  0  0  0  0
 11 23  1  0  0  0  0
M  END
