20

C          2.30793       -0.43228        0.99867
C          2.16690        0.01820       -0.25530
C          3.01150        1.07350       -0.88570
C          2.68930        2.44190       -0.83220
C          3.51820        3.38390       -1.43800
C          4.67570        2.98400       -2.10580
F          5.45200        3.93780       -2.68190
C          5.02770        1.62130       -2.18250
C          6.28190        1.25960       -2.91830
C          6.41130        0.96200       -4.22392
F          5.37442        0.95292       -5.09679
F          7.64525        0.66011       -4.70648
C          4.17970        0.67580       -1.56190
H          1.64027       -1.20553        1.36529
H          3.06224       -0.06090        1.67906
H          1.37336       -0.42471       -0.85104
H          1.80590        2.80200       -0.32750
H          3.26070        4.43440       -1.38930
H          7.20212        1.23516       -2.34143
H          4.40270       -0.37530       -1.58590
20

C          1.16365       -0.62890       -0.86357
C          2.16690        0.01820       -0.25530
C          3.01150        1.07350       -0.88570
C          2.68930        2.44190       -0.83220
C          3.51820        3.38390       -1.43800
C          4.67570        2.98400       -2.10580
F          5.45200        3.93780       -2.68190
C          5.02770        1.62130       -2.18250
C          6.28190        1.25960       -2.91830
C          7.52522        1.14802       -2.41664
F          7.82784        1.35283       -1.11143
F          8.53936        0.80419       -3.25328
C          4.17970        0.67580       -1.56190
H          0.60707       -1.38334       -0.31664
H          0.87294       -0.43957       -1.88802
H          2.37419       -0.25369        0.77615
H          1.80590        2.80200       -0.32750
H          3.26070        4.43440       -1.38930
H          6.18866        1.05762       -3.98164
H          4.40270       -0.37530       -1.58590
20

C          1.40578        0.19122        0.83374
C          2.16690        0.01820       -0.25530
C          3.01150        1.07350       -0.88570
C          2.68930        2.44190       -0.83220
C          3.51820        3.38390       -1.43800
C          4.67570        2.98400       -2.10580
F          5.45200        3.93780       -2.68190
C          5.02770        1.62130       -2.18250
C          6.28190        1.25960       -2.91830
C          7.52522        1.14802       -2.41664
F          7.82784        1.35283       -1.11143
F          8.53936        0.80419       -3.25328
C          4.17970        0.67580       -1.56190
H          0.82550       -0.64250        1.21619
H          1.33446        1.13242        1.36186
H          2.16174       -0.96989       -0.70743
H          1.80590        2.80200       -0.32750
H          3.26070        4.43440       -1.38930
H          6.18866        1.05762       -3.98164
H          4.40270       -0.37530       -1.58590
20

C          0.83975        0.09396       -0.08744
C          2.16690        0.01820       -0.25530
C          3.01150        1.07350       -0.88570
C          2.68930        2.44190       -0.83220
C          3.51820        3.38390       -1.43800
C          4.67570        2.98400       -2.10580
F          5.45200        3.93780       -2.68190
C          5.02770        1.62130       -2.18250
C          6.28190        1.25960       -2.91830
C          7.52522        1.14802       -2.41664
F          7.82784        1.35283       -1.11143
F          8.53936        0.80419       -3.25328
C          4.17970        0.67580       -1.56190
H          0.31441       -0.73046        0.38420
H          0.25149        0.94511       -0.40265
H          2.65682       -0.88530        0.09748
H          1.80590        2.80200       -0.32750
H          3.26070        4.43440       -1.38930
H          6.18866        1.05762       -3.98164
H          4.40270       -0.37530       -1.58590
20

C          2.30793       -0.43228        0.99867
C          2.16690        0.01820       -0.25530
C          3.01150        1.07350       -0.88570
C          2.68930        2.44190       -0.83220
C          3.51820        3.38390       -1.43800
C          4.67570        2.98400       -2.10580
F          5.45200        3.93780       -2.68190
C          5.02770        1.62130       -2.18250
C          6.28190        1.25960       -2.91830
C          7.52522        1.14802       -2.41664
F          7.82784        1.35283       -1.11143
F          8.53936        0.80419       -3.25328
C          4.17970        0.67580       -1.56190
H          1.64027       -1.20553        1.36529
H          3.06224       -0.06090        1.67906
H          1.37336       -0.42471       -0.85104
H          1.80590        2.80200       -0.32750
H          3.26070        4.43440       -1.38930
H          6.18866        1.05762       -3.98164
H          4.40270       -0.37530       -1.58590
20

C          1.16365       -0.62890       -0.86357
C          2.16690        0.01820       -0.25530
C          3.01150        1.07350       -0.88570
C          2.68930        2.44190       -0.83220
C          3.51820        3.38390       -1.43800
C          4.67570        2.98400       -2.10580
F          5.45200        3.93780       -2.68190
C          5.02770        1.62130       -2.18250
C          6.28190        1.25960       -2.91830
C          6.41130        0.96200       -4.22392
F          5.37442        0.95292       -5.09679
F          7.64525        0.66011       -4.70648
C          4.17970        0.67580       -1.56190
H          0.60707       -1.38334       -0.31664
H          0.87294       -0.43957       -1.88802
H          2.37419       -0.25369        0.77615
H          1.80590        2.80200       -0.32750
H          3.26070        4.43440       -1.38930
H          7.20212        1.23516       -2.34143
H          4.40270       -0.37530       -1.58590
20

C          1.16365       -0.62890       -0.86357
C          2.16690        0.01820       -0.25530
C          3.01150        1.07350       -0.88570
C          2.68930        2.44190       -0.83220
C          3.51820        3.38390       -1.43800
C          4.67570        2.98400       -2.10580
F          5.45200        3.93780       -2.68190
C          5.02770        1.62130       -2.18250
C          6.28190        1.25960       -2.91830
C          7.10196        0.21964       -2.68175
F          6.89303       -0.69124       -1.70003
F          8.19825        0.05939       -3.46858
C          4.17970        0.67580       -1.56190
H          0.60707       -1.38334       -0.31664
H          0.87294       -0.43957       -1.88802
H          2.37419       -0.25369        0.77615
H          1.80590        2.80200       -0.32750
H          3.26070        4.43440       -1.38930
H          6.57158        1.90286       -3.74442
H          4.40270       -0.37530       -1.58590
20

C          2.30793       -0.43228        0.99867
C          2.16690        0.01820       -0.25530
C          3.01150        1.07350       -0.88570
C          2.68930        2.44190       -0.83220
C          3.51820        3.38390       -1.43800
C          4.67570        2.98400       -2.10580
F          5.45200        3.93780       -2.68190
C          5.02770        1.62130       -2.18250
C          6.28190        1.25960       -2.91830
C          7.39472        2.00242       -3.05910
F          7.54301        3.23889       -2.52407
F          8.43600        1.49224       -3.76768
C          4.17970        0.67580       -1.56190
H          1.64027       -1.20553        1.36529
H          3.06224       -0.06090        1.67906
H          1.37336       -0.42471       -0.85104
H          1.80590        2.80200       -0.32750
H          3.26070        4.43440       -1.38930
H          6.30961        0.28387       -3.39512
H          4.40270       -0.37530       -1.58590
20

C          1.16365       -0.62890       -0.86357
C          2.16690        0.01820       -0.25530
C          3.01150        1.07350       -0.88570
C          2.68930        2.44190       -0.83220
C          3.51820        3.38390       -1.43800
C          4.67570        2.98400       -2.10580
F          5.45200        3.93780       -2.68190
C          5.02770        1.62130       -2.18250
C          6.28190        1.25960       -2.91830
C          6.84370        1.91040       -3.95310
F          6.32939        3.04107       -4.49549
F          7.99372        1.42097       -4.48653
C          4.17970        0.67580       -1.56190
H          0.60707       -1.38334       -0.31664
H          0.87294       -0.43957       -1.88802
H          2.37419       -0.25369        0.77615
H          1.80590        2.80200       -0.32750
H          3.26070        4.43440       -1.38930
H          6.81093        0.37169       -2.58376
H          4.40270       -0.37530       -1.58590
20

C          2.30793       -0.43228        0.99867
C          2.16690        0.01820       -0.25530
C          3.01150        1.07350       -0.88570
C          2.68930        2.44190       -0.83220
C          3.51820        3.38390       -1.43800
C          4.67570        2.98400       -2.10580
F          5.45200        3.93780       -2.68190
C          5.02770        1.62130       -2.18250
C          6.28190        1.25960       -2.91830
C          7.10196        0.21964       -2.68175
F          6.89303       -0.69124       -1.70003
F          8.19825        0.05939       -3.46858
C          4.17970        0.67580       -1.56190
H          1.64027       -1.20553        1.36529
H          3.06224       -0.06090        1.67906
H          1.37336       -0.42471       -0.85104
H          1.80590        2.80200       -0.32750
H          3.26070        4.43440       -1.38930
H          6.57158        1.90286       -3.74442
H          4.40270       -0.37530       -1.58590
