
  xtb     02032211353D
 xtb: 6.4.1 (23d549d)
 20 21  0     0  0            999 V2000
   -4.6309    0.1070   -0.0055 C   0  0  0  0  0  0  0  0  0  0  0  0
   -3.6408   -0.7815   -0.0021 C   0  0  0  0  0  0  0  0  0  0  0  0
   -2.2421   -0.4566    0.0007 C   0  0  0  0  0  0  0  0  0  0  0  0
   -1.1965   -1.3454    0.0017 C   0  0  0  0  0  0  0  0  0  0  0  0
    0.0449   -0.6952    0.0023 C   0  0  0  0  0  0  0  0  0  0  0  0
    1.6935   -1.2113    0.0014 S   0  0  0  0  0  0  0  0  0  0  0  0
    2.2421    0.4566    0.0005 C   0  0  0  0  0  0  0  0  0  0  0  0
    3.6408    0.7816   -0.0023 C   0  0  0  0  0  0  0  0  0  0  0  0
    4.6310   -0.1070   -0.0050 C   0  0  0  0  0  0  0  0  0  0  0  0
    1.1965    1.3453    0.0016 C   0  0  0  0  0  0  0  0  0  0  0  0
   -0.0449    0.6952    0.0024 C   0  0  0  0  0  0  0  0  0  0  0  0
   -1.6935    1.2113    0.0016 S   0  0  0  0  0  0  0  0  0  0  0  0
   -5.6626   -0.1960   -0.0080 H   0  0  0  0  0  0  0  0  0  0  0  0
   -4.4345    1.1666   -0.0059 H   0  0  0  0  0  0  0  0  0  0  0  0
   -3.8556   -1.8427   -0.0019 H   0  0  0  0  0  0  0  0  0  0  0  0
   -1.3234   -2.4125    0.0014 H   0  0  0  0  0  0  0  0  0  0  0  0
    3.8556    1.8428   -0.0027 H   0  0  0  0  0  0  0  0  0  0  0  0
    4.4346   -1.1666   -0.0049 H   0  0  0  0  0  0  0  0  0  0  0  0
    5.6627    0.1961   -0.0077 H   0  0  0  0  0  0  0  0  0  0  0  0
    1.3234    2.4125    0.0014 H   0  0  0  0  0  0  0  0  0  0  0  0
  1  2  2  0  0  0  0
  2  3  1  0  0  0  0
  3  4  2  0  0  0  0
  4  5  4  0  0  0  0
  5  6  1  0  0  0  0
  6  7  1  0  0  0  0
  7  8  1  0  0  0  0
  8  9  2  0  0  0  0
  7 10  2  0  0  0  0
  5 11  4  0  0  0  0
 10 11  4  0  0  0  0
  3 12  1  0  0  0  0
 11 12  1  0  0  0  0
  1 13  1  0  0  0  0
  1 14  1  0  0  0  0
  2 15  1  0  0  0  0
  4 16  1  0  0  0  0
  8 17  1  0  0  0  0
  9 18  1  0  0  0  0
  9 19  1  0  0  0  0
 10 20  1  0  0  0  0
M  END
