23

C          2.77938        0.68350        1.02639
C          2.42710       -0.11330        0.01080
C          3.14560       -0.11190       -1.29000
N          4.19710       -0.95420       -1.47720
C          4.90450       -1.01550       -2.63920
C          6.04220       -1.97020       -2.73560
C          5.88656       -3.22555       -3.17436
C          4.52020       -0.16130       -3.70030
N          5.17930       -0.14420       -4.95690
N          3.47150        0.68280       -3.51210
C          2.77310        0.73950       -2.34850
C          1.63270        1.70860       -2.24030
H          2.22543        0.64644        1.95887
H          3.61253        1.37487        0.94748
H          1.58392       -0.77875        0.16402
H          7.04287       -1.67835       -2.44849
H          4.91936       -3.60880       -3.48377
H          6.74367       -3.88946       -3.22654
H          5.97310       -0.75470       -5.18250
H          4.85230        0.50000       -5.69160
H          1.51540        2.28030       -3.18550
H          1.82640        2.42930       -1.41800
H          0.68750        1.16130       -2.04200
23

C          1.37204       -0.90154        0.24734
C          2.42710       -0.11330        0.01080
C          3.14560       -0.11190       -1.29000
N          4.19710       -0.95420       -1.47720
C          4.90450       -1.01550       -2.63920
C          6.04220       -1.97020       -2.73560
C          7.29292       -1.62756       -2.40250
C          4.52020       -0.16130       -3.70030
N          5.17930       -0.14420       -4.95690
N          3.47150        0.68280       -3.51210
C          2.77310        0.73950       -2.34850
C          1.63270        1.70860       -2.24030
H          0.87805       -0.86695        1.21302
H          0.98845       -1.58346       -0.50512
H          2.75289        0.54290        0.81112
H          5.89434       -2.98281       -3.08446
H          7.53836       -0.63326       -2.04304
H          8.09362       -2.35509       -2.49029
H          5.97310       -0.75470       -5.18250
H          4.85230        0.50000       -5.69160
H          1.51540        2.28030       -3.18550
H          1.82640        2.42930       -1.41800
H          0.68750        1.16130       -2.04200
23

C          1.37204       -0.90154        0.24734
C          2.42710       -0.11330        0.01080
C          3.14560       -0.11190       -1.29000
N          4.19710       -0.95420       -1.47720
C          4.90450       -1.01550       -2.63920
C          6.04220       -1.97020       -2.73560
C          5.88656       -3.22555       -3.17436
C          4.52020       -0.16130       -3.70030
N          5.17930       -0.14420       -4.95690
N          3.47150        0.68280       -3.51210
C          2.77310        0.73950       -2.34850
C          1.63270        1.70860       -2.24030
H          0.87805       -0.86695        1.21302
H          0.98845       -1.58346       -0.50512
H          2.75289        0.54290        0.81112
H          7.04287       -1.67835       -2.44849
H          4.91936       -3.60880       -3.48377
H          6.74367       -3.88946       -3.22654
H          5.97310       -0.75470       -5.18250
H          4.85230        0.50000       -5.69160
H          1.51540        2.28030       -3.18550
H          1.82640        2.42930       -1.41800
H          0.68750        1.16130       -2.04200
23

C          2.77938        0.68350        1.02639
C          2.42710       -0.11330        0.01080
C          3.14560       -0.11190       -1.29000
N          4.19710       -0.95420       -1.47720
C          4.90450       -1.01550       -2.63920
C          6.04220       -1.97020       -2.73560
C          7.29292       -1.62756       -2.40250
C          4.52020       -0.16130       -3.70030
N          5.17930       -0.14420       -4.95690
N          3.47150        0.68280       -3.51210
C          2.77310        0.73950       -2.34850
C          1.63270        1.70860       -2.24030
H          2.22543        0.64644        1.95887
H          3.61253        1.37487        0.94748
H          1.58392       -0.77875        0.16402
H          5.89434       -2.98281       -3.08446
H          7.53836       -0.63326       -2.04304
H          8.09362       -2.35509       -2.49029
H          5.97310       -0.75470       -5.18250
H          4.85230        0.50000       -5.69160
H          1.51540        2.28030       -3.18550
H          1.82640        2.42930       -1.41800
H          0.68750        1.16130       -2.04200
23

C          2.77938        0.68350        1.02639
C          2.42710       -0.11330        0.01080
C          3.14560       -0.11190       -1.29000
N          4.19710       -0.95420       -1.47720
C          4.90450       -1.01550       -2.63920
C          6.04220       -1.97020       -2.73560
C          6.40216       -2.53853       -3.89322
C          4.52020       -0.16130       -3.70030
N          5.17930       -0.14420       -4.95690
N          3.47150        0.68280       -3.51210
C          2.77310        0.73950       -2.34850
C          1.63270        1.70860       -2.24030
H          2.22543        0.64644        1.95887
H          3.61253        1.37487        0.94748
H          1.58392       -0.77875        0.16402
H          6.62023       -2.24111       -1.86300
H          5.88047       -2.32838       -4.82152
H          7.23730       -3.23140       -3.91786
H          5.97310       -0.75470       -5.18250
H          4.85230        0.50000       -5.69160
H          1.51540        2.28030       -3.18550
H          1.82640        2.42930       -1.41800
H          0.68750        1.16130       -2.04200
23

C          1.37204       -0.90154        0.24734
C          2.42710       -0.11330        0.01080
C          3.14560       -0.11190       -1.29000
N          4.19710       -0.95420       -1.47720
C          4.90450       -1.01550       -2.63920
C          6.04220       -1.97020       -2.73560
C          7.11284       -1.73101       -3.50317
C          4.52020       -0.16130       -3.70030
N          5.17930       -0.14420       -4.95690
N          3.47150        0.68280       -3.51210
C          2.77310        0.73950       -2.34850
C          1.63270        1.70860       -2.24030
H          0.87805       -0.86695        1.21302
H          0.98845       -1.58346       -0.50512
H          2.75289        0.54290        0.81112
H          6.03984       -2.90030       -2.18438
H          7.20394       -0.82474       -4.09347
H          7.91948       -2.45603       -3.54581
H          5.97310       -0.75470       -5.18250
H          4.85230        0.50000       -5.69160
H          1.51540        2.28030       -3.18550
H          1.82640        2.42930       -1.41800
H          0.68750        1.16130       -2.04200
23

C          2.77938        0.68350        1.02639
C          2.42710       -0.11330        0.01080
C          3.14560       -0.11190       -1.29000
N          4.19710       -0.95420       -1.47720
C          4.90450       -1.01550       -2.63920
C          6.04220       -1.97020       -2.73560
C          7.11284       -1.73101       -3.50317
C          4.52020       -0.16130       -3.70030
N          5.17930       -0.14420       -4.95690
N          3.47150        0.68280       -3.51210
C          2.77310        0.73950       -2.34850
C          1.63270        1.70860       -2.24030
H          2.22543        0.64644        1.95887
H          3.61253        1.37487        0.94748
H          1.58392       -0.77875        0.16402
H          6.03984       -2.90030       -2.18438
H          7.20394       -0.82474       -4.09347
H          7.91948       -2.45603       -3.54581
H          5.97310       -0.75470       -5.18250
H          4.85230        0.50000       -5.69160
H          1.51540        2.28030       -3.18550
H          1.82640        2.42930       -1.41800
H          0.68750        1.16130       -2.04200
23

C          1.37204       -0.90154        0.24734
C          2.42710       -0.11330        0.01080
C          3.14560       -0.11190       -1.29000
N          4.19710       -0.95420       -1.47720
C          4.90450       -1.01550       -2.63920
C          6.04220       -1.97020       -2.73560
C          6.40216       -2.53853       -3.89322
C          4.52020       -0.16130       -3.70030
N          5.17930       -0.14420       -4.95690
N          3.47150        0.68280       -3.51210
C          2.77310        0.73950       -2.34850
C          1.63270        1.70860       -2.24030
H          0.87805       -0.86695        1.21302
H          0.98845       -1.58346       -0.50512
H          2.75289        0.54290        0.81112
H          6.62023       -2.24111       -1.86300
H          5.88047       -2.32838       -4.82152
H          7.23730       -3.23140       -3.91786
H          5.97310       -0.75470       -5.18250
H          4.85230        0.50000       -5.69160
H          1.51540        2.28030       -3.18550
H          1.82640        2.42930       -1.41800
H          0.68750        1.16130       -2.04200
23

C          1.83661        0.98057        0.50597
C          2.42710       -0.11330        0.01080
C          3.14560       -0.11190       -1.29000
N          4.19710       -0.95420       -1.47720
C          4.90450       -1.01550       -2.63920
C          6.04220       -1.97020       -2.73560
C          7.29292       -1.62756       -2.40250
C          4.52020       -0.16130       -3.70030
N          5.17930       -0.14420       -4.95690
N          3.47150        0.68280       -3.51210
C          2.77310        0.73950       -2.34850
C          1.63270        1.70860       -2.24030
H          1.32437        0.93187        1.46148
H          1.85357        1.92806       -0.02349
H          2.36891       -1.02425        0.59735
H          5.89434       -2.98281       -3.08446
H          7.53836       -0.63326       -2.04304
H          8.09362       -2.35509       -2.49029
H          5.97310       -0.75470       -5.18250
H          4.85230        0.50000       -5.69160
H          1.51540        2.28030       -3.18550
H          1.82640        2.42930       -1.41800
H          0.68750        1.16130       -2.04200
23

C          1.83661        0.98057        0.50597
C          2.42710       -0.11330        0.01080
C          3.14560       -0.11190       -1.29000
N          4.19710       -0.95420       -1.47720
C          4.90450       -1.01550       -2.63920
C          6.04220       -1.97020       -2.73560
C          7.11284       -1.73101       -3.50317
C          4.52020       -0.16130       -3.70030
N          5.17930       -0.14420       -4.95690
N          3.47150        0.68280       -3.51210
C          2.77310        0.73950       -2.34850
C          1.63270        1.70860       -2.24030
H          1.32437        0.93187        1.46148
H          1.85357        1.92806       -0.02349
H          2.36891       -1.02425        0.59735
H          6.03984       -2.90030       -2.18438
H          7.20394       -0.82474       -4.09347
H          7.91948       -2.45603       -3.54581
H          5.97310       -0.75470       -5.18250
H          4.85230        0.50000       -5.69160
H          1.51540        2.28030       -3.18550
H          1.82640        2.42930       -1.41800
H          0.68750        1.16130       -2.04200
