
  xtb     02032211203D
 xtb: 6.4.1 (23d549d)
 23 23  0     0  0            999 V2000
    3.1236    0.0447    1.1658 c   0  0  0  0  0  0  0  0  0  0  0  0
    2.6524    0.5525    0.0330 c   0  0  0  0  0  0  0  0  0  0  0  0
    3.1943    0.2194   -1.2769 c   0  0  0  0  0  0  0  0  0  0  0  0
    4.2341   -0.6141   -1.3197 n   0  0  0  0  0  0  0  0  0  0  0  0
    4.7767   -0.9518   -2.4775 c   0  0  0  0  0  0  0  0  0  0  0  0
    5.8609   -1.9234   -2.4078 c   0  0  0  0  0  0  0  0  0  0  0  0
    6.1992   -2.7953   -3.3505 c   0  0  0  0  0  0  0  0  0  0  0  0
    4.3070   -0.3391   -3.6674 c   0  0  0  0  0  0  0  0  0  0  0  0
    4.8709   -0.5372   -4.8941 n   0  0  0  0  0  0  0  0  0  0  0  0
    3.2502    0.4686   -3.6329 n   0  0  0  0  0  0  0  0  0  0  0  0
    2.6623    0.7301   -2.4741 c   0  0  0  0  0  0  0  0  0  0  0  0
    1.4477    1.6012   -2.5371 c   0  0  0  0  0  0  0  0  0  0  0  0
    2.7079    0.3060    2.1240 h   0  0  0  0  0  0  0  0  0  0  0  0
    3.9445   -0.6515    1.1519 h   0  0  0  0  0  0  0  0  0  0  0  0
    1.8271    1.2506    0.0444 h   0  0  0  0  0  0  0  0  0  0  0  0
    6.3719   -1.9283   -1.4541 h   0  0  0  0  0  0  0  0  0  0  0  0
    5.6648   -2.8816   -4.2814 h   0  0  0  0  0  0  0  0  0  0  0  0
    7.0037   -3.4949   -3.1973 h   0  0  0  0  0  0  0  0  0  0  0  0
    5.8355   -0.8242   -4.9201 h   0  0  0  0  0  0  0  0  0  0  0  0
    4.5682    0.1112   -5.6043 h   0  0  0  0  0  0  0  0  0  0  0  0
    1.2219    1.8153   -3.5780 h   0  0  0  0  0  0  0  0  0  0  0  0
    1.6217    2.5393   -2.0120 h   0  0  0  0  0  0  0  0  0  0  0  0
    0.5951    1.1031   -2.0793 h   0  0  0  0  0  0  0  0  0  0  0  0
  1  2  2  0  0  0  0
  2  3  1  0  0  0  0
  3  4  4  0  0  0  0
  4  5  4  0  0  0  0
  5  6  1  0  0  0  0
  6  7  2  0  0  0  0
  5  8  4  0  0  0  0
  8  9  1  0  0  0  0
  8 10  4  0  0  0  0
  3 11  4  0  0  0  0
 10 11  4  0  0  0  0
 11 12  1  0  0  0  0
  1 13  1  0  0  0  0
  1 14  1  0  0  0  0
  2 15  1  0  0  0  0
  6 16  1  0  0  0  0
  7 17  1  0  0  0  0
  7 18  1  0  0  0  0
  9 19  1  0  0  0  0
  9 20  1  0  0  0  0
 12 21  1  0  0  0  0
 12 22  1  0  0  0  0
 12 23  1  0  0  0  0
M  END
