28

C          1.14991       -0.61235       -0.12943
C          2.25850        0.13180       -0.04800
C          3.03180        0.27310        1.20500
C          2.61060       -0.38620        2.36640
C          3.35330       -0.24970        3.53930
C          4.50650        0.53650        3.54810
C          4.90820        1.18930        2.37010
C          6.13150        2.02680        2.33760
C          6.88855        2.15910        1.16096
C          8.03853        2.94945        1.16858
C          8.43138        3.59852        2.33914
C          7.66124        3.45025        3.49926
C          8.07048        4.12674        4.74952
C          7.18846        4.53676        5.66782
N          6.54053        2.67588        3.46388
N          4.15920        1.03790        1.24170
H          0.61530       -0.68377       -1.07114
H          0.76315       -1.15406        0.72821
H          2.59778        0.65239       -0.93923
H          1.71850       -1.00040        2.36430
H          3.03620       -0.75560        4.44210
H          5.07390        0.63130        4.46520
H          6.59737        1.65957        0.24558
H          8.62700        3.05713        0.26655
H          9.32681        4.20787        2.34015
H          9.12712        4.29771        4.93579
H          6.12058        4.39215        5.53643
H          7.53765        5.02686        6.57090
28

C          2.62228        0.72737       -1.18920
C          2.25850        0.13180       -0.04800
C          3.03180        0.27310        1.20500
C          2.61060       -0.38620        2.36640
C          3.35330       -0.24970        3.53930
C          4.50650        0.53650        3.54810
C          4.90820        1.18930        2.37010
C          6.13150        2.02680        2.33760
C          6.88855        2.15910        1.16096
C          8.03853        2.94945        1.16858
C          8.43138        3.59852        2.33914
C          7.66124        3.45025        3.49926
C          8.07048        4.12674        4.74952
C          7.80461        3.62373        5.96016
N          6.54053        2.67588        3.46388
N          4.15920        1.03790        1.24170
H          2.02309        0.59217       -2.08386
H          3.50975        1.34976       -1.24923
H          1.36088       -0.48031       -0.04813
H          1.71850       -1.00040        2.36430
H          3.03620       -0.75560        4.44210
H          5.07390        0.63130        4.46520
H          6.59737        1.65957        0.24558
H          8.62700        3.05713        0.26655
H          9.32681        4.20787        2.34015
H          8.61034        5.06761        4.68837
H          7.26952        2.68717        6.08289
H          8.12755        4.15621        6.84890
28

C          1.26422        0.96371       -0.37771
C          2.25850        0.13180       -0.04800
C          3.03180        0.27310        1.20500
C          2.61060       -0.38620        2.36640
C          3.35330       -0.24970        3.53930
C          4.50650        0.53650        3.54810
C          4.90820        1.18930        2.37010
C          6.13150        2.02680        2.33760
C          6.57886        2.70170        3.48630
C          7.73003        3.48734        3.41751
C          8.42604        3.60147        2.21402
C          7.95980        2.92038        1.08277
C          8.68384        3.03869       -0.20177
C          9.66529        2.20100       -0.55444
N          6.83528        2.15664        1.17788
N          4.15920        1.03790        1.24170
H          0.72677        0.82050       -1.30957
H          0.97439        1.78844        0.26602
H          2.50487       -0.67545       -0.73215
H          1.71850       -1.00040        2.36430
H          3.03620       -0.75560        4.44210
H          5.07390        0.63130        4.46520
H          6.04785        2.62448        4.42667
H          8.08173        4.01002        4.29765
H          9.31697        4.21546        2.16559
H          8.41062        3.83325       -0.89057
H          9.98037        1.38819        0.09255
H         10.16577        2.32708       -1.50906
28

C          1.14991       -0.61235       -0.12943
C          2.25850        0.13180       -0.04800
C          3.03180        0.27310        1.20500
C          2.61060       -0.38620        2.36640
C          3.35330       -0.24970        3.53930
C          4.50650        0.53650        3.54810
C          4.90820        1.18930        2.37010
C          6.13150        2.02680        2.33760
C          6.92682        2.19336        3.48426
C          8.06723        2.99488        3.41947
C          8.40897        3.62678        2.22375
C          7.59993        3.44650        1.09505
C          7.94637        4.11683       -0.17731
C          8.72891        3.54752       -1.10083
N          6.49393        2.65549        1.18412
N          4.15920        1.03790        1.24170
H          0.61530       -0.68377       -1.07114
H          0.76315       -1.15406        0.72821
H          2.59778        0.65239       -0.93923
H          1.71850       -1.00040        2.36430
H          3.03620       -0.75560        4.44210
H          5.07390        0.63130        4.46520
H          6.67297        1.71113        4.41981
H          8.68558        3.12801        4.29780
H          9.29333        4.25056        2.18020
H          7.55085        5.10904       -0.37606
H          9.15165        2.55792       -0.95762
H          8.95308        4.07856       -2.02030
28

C          2.62228        0.72737       -1.18920
C          2.25850        0.13180       -0.04800
C          3.03180        0.27310        1.20500
C          2.61060       -0.38620        2.36640
C          3.35330       -0.24970        3.53930
C          4.50650        0.53650        3.54810
C          4.90820        1.18930        2.37010
C          6.13150        2.02680        2.33760
C          6.88855        2.15910        1.16096
C          8.03853        2.94945        1.16858
C          8.43138        3.59852        2.33914
C          7.66124        3.45025        3.49926
C          8.07048        4.12674        4.74952
C          7.65440        5.35654        5.07173
N          6.54053        2.67588        3.46388
N          4.15920        1.03790        1.24170
H          2.02309        0.59217       -2.08386
H          3.50975        1.34976       -1.24923
H          1.36088       -0.48031       -0.04813
H          1.71850       -1.00040        2.36430
H          3.03620       -0.75560        4.44210
H          5.07390        0.63130        4.46520
H          6.59737        1.65957        0.24558
H          8.62700        3.05713        0.26655
H          9.32681        4.20787        2.34015
H          8.73251        3.60865        5.43779
H          6.99170        5.92169        4.42369
H          7.98052        5.81045        6.00195
28

C          1.14991       -0.61235       -0.12943
C          2.25850        0.13180       -0.04800
C          3.03180        0.27310        1.20500
C          2.61060       -0.38620        2.36640
C          3.35330       -0.24970        3.53930
C          4.50650        0.53650        3.54810
C          4.90820        1.18930        2.37010
C          6.13150        2.02680        2.33760
C          6.92682        2.19336        3.48426
C          8.06723        2.99488        3.41947
C          8.40897        3.62678        2.22375
C          7.59993        3.44650        1.09505
C          7.94637        4.11683       -0.17731
C          7.20297        3.99166       -1.28232
N          6.49393        2.65549        1.18412
N          4.15920        1.03790        1.24170
H          0.61530       -0.68377       -1.07114
H          0.76315       -1.15406        0.72821
H          2.59778        0.65239       -0.93923
H          1.71850       -1.00040        2.36430
H          3.03620       -0.75560        4.44210
H          5.07390        0.63130        4.46520
H          6.67297        1.71113        4.41981
H          8.68558        3.12801        4.29780
H          9.29333        4.25056        2.18020
H          8.83655        4.73816       -0.22138
H          6.30274        3.38514       -1.29752
H          7.49713        4.50514       -2.19199
28

C          1.55375       -0.96740       -0.33863
C          2.25850        0.13180       -0.04800
C          3.03180        0.27310        1.20500
C          2.61060       -0.38620        2.36640
C          3.35330       -0.24970        3.53930
C          4.50650        0.53650        3.54810
C          4.90820        1.18930        2.37010
C          6.13150        2.02680        2.33760
C          6.88855        2.15910        1.16096
C          8.03853        2.94945        1.16858
C          8.43138        3.59852        2.33914
C          7.66124        3.45025        3.49926
C          8.07048        4.12674        4.74952
C          9.34969        4.38723        5.04130
N          6.54053        2.67588        3.46388
N          4.15920        1.03790        1.24170
H          1.00036       -1.02350       -1.27048
H          1.51748       -1.81612        0.33733
H          2.25699        0.95027       -0.76250
H          1.71850       -1.00040        2.36430
H          3.03620       -0.75560        4.44210
H          5.07390        0.63130        4.46520
H          6.59737        1.65957        0.24558
H          8.62700        3.05713        0.26655
H          9.32681        4.20787        2.34015
H          7.30675        4.42826        5.46101
H         10.15523        4.11026        4.36831
H          9.60029        4.88802        5.97087
28

C          1.14991       -0.61235       -0.12943
C          2.25850        0.13180       -0.04800
C          3.03180        0.27310        1.20500
C          2.61060       -0.38620        2.36640
C          3.35330       -0.24970        3.53930
C          4.50650        0.53650        3.54810
C          4.90820        1.18930        2.37010
C          6.13150        2.02680        2.33760
C          6.88855        2.15910        1.16096
C          8.03853        2.94945        1.16858
C          8.43138        3.59852        2.33914
C          7.66124        3.45025        3.49926
C          8.07048        4.12674        4.74952
C          8.87369        3.54976        5.65024
N          6.54053        2.67588        3.46388
N          4.15920        1.03790        1.24170
H          0.61530       -0.68377       -1.07114
H          0.76315       -1.15406        0.72821
H          2.59778        0.65239       -0.93923
H          1.71850       -1.00040        2.36430
H          3.03620       -0.75560        4.44210
H          5.07390        0.63130        4.46520
H          6.59737        1.65957        0.24558
H          8.62700        3.05713        0.26655
H          9.32681        4.20787        2.34015
H          7.70987        5.13218        4.94818
H          9.26533        2.54773        5.50506
H          9.14786        4.08753        6.55209
28

C          2.62228        0.72737       -1.18920
C          2.25850        0.13180       -0.04800
C          3.03180        0.27310        1.20500
C          2.61060       -0.38620        2.36640
C          3.35330       -0.24970        3.53930
C          4.50650        0.53650        3.54810
C          4.90820        1.18930        2.37010
C          6.13150        2.02680        2.33760
C          7.22316        1.74862        3.17785
C          8.35550        2.56242        3.12601
C          8.39712        3.64500        2.24730
C          7.29631        3.90263        1.42096
C          7.32397        5.05184        0.48993
C          6.66931        5.04886       -0.67659
N          6.20441        3.09018        1.48847
N          4.15920        1.03790        1.24170
H          2.02309        0.59217       -2.08386
H          3.50975        1.34976       -1.24923
H          1.36088       -0.48031       -0.04813
H          1.71850       -1.00040        2.36430
H          3.03620       -0.75560        4.44210
H          5.07390        0.63130        4.46520
H          7.20443        0.91338        3.86651
H          9.20085        2.35486        3.76931
H          9.27724        4.27537        2.21383
H          7.89437        5.93629        0.75977
H          6.08265        4.19397       -0.99834
H          6.71819        5.91739       -1.32539
28

C          2.62228        0.72737       -1.18920
C          2.25850        0.13180       -0.04800
C          3.03180        0.27310        1.20500
C          2.61060       -0.38620        2.36640
C          3.35330       -0.24970        3.53930
C          4.50650        0.53650        3.54810
C          4.90820        1.18930        2.37010
C          6.13150        2.02680        2.33760
C          7.22316        1.74862        3.17785
C          8.35550        2.56242        3.12601
C          8.39712        3.64500        2.24730
C          7.29631        3.90263        1.42096
C          7.32397        5.05184        0.48993
C          8.45793        5.51621       -0.04659
N          6.20441        3.09018        1.48847
N          4.15920        1.03790        1.24170
H          2.02309        0.59217       -2.08386
H          3.50975        1.34976       -1.24923
H          1.36088       -0.48031       -0.04813
H          1.71850       -1.00040        2.36430
H          3.03620       -0.75560        4.44210
H          5.07390        0.63130        4.46520
H          7.20443        0.91338        3.86651
H          9.20085        2.35486        3.76931
H          9.27724        4.27537        2.21383
H          6.38995        5.54010        0.22604
H          9.42044        5.06795        0.17960
H          8.42700        6.36127       -0.72673
