
  xtb     02032211353D
 xtb: 6.4.1 (23d549d)
 21 21  0     0  0            999 V2000
    3.6668    0.0108    0.2869 C   0  0  0  0  0  0  0  0  0  0  0  0
    2.4753    0.4846   -0.0567 C   0  0  0  0  0  0  0  0  0  0  0  0
    1.2289   -0.2741   -0.0603 C   0  0  0  0  0  0  0  0  0  0  0  0
    1.2020   -1.6664   -0.0714 C   0  0  0  0  0  0  0  0  0  0  0  0
   -0.0001   -2.3501   -0.0794 C   0  0  0  0  0  0  0  0  0  0  0  0
   -1.2021   -1.6663   -0.0714 C   0  0  0  0  0  0  0  0  0  0  0  0
   -1.2290   -0.2740   -0.0602 C   0  0  0  0  0  0  0  0  0  0  0  0
   -2.4753    0.4847   -0.0565 C   0  0  0  0  0  0  0  0  0  0  0  0
   -3.6670    0.0109    0.2868 C   0  0  0  0  0  0  0  0  0  0  0  0
    0.0000    0.4124   -0.0668 C   0  0  0  0  0  0  0  0  0  0  0  0
    0.0000    1.8255   -0.0564 C   0  0  0  0  0  0  0  0  0  0  0  0
    0.0003    2.9735   -0.0524 N   0  0  0  0  0  0  0  0  0  0  0  0
    4.5413    0.6376    0.2698 H   0  0  0  0  0  0  0  0  0  0  0  0
    3.8197   -1.0048    0.6115 H   0  0  0  0  0  0  0  0  0  0  0  0
    2.3805    1.5255   -0.3393 H   0  0  0  0  0  0  0  0  0  0  0  0
    2.1292   -2.2167   -0.0955 H   0  0  0  0  0  0  0  0  0  0  0  0
   -0.0001   -3.4302   -0.0995 H   0  0  0  0  0  0  0  0  0  0  0  0
   -2.1293   -2.2166   -0.0955 H   0  0  0  0  0  0  0  0  0  0  0  0
   -2.3804    1.5258   -0.3388 H   0  0  0  0  0  0  0  0  0  0  0  0
   -3.8201   -1.0047    0.6108 H   0  0  0  0  0  0  0  0  0  0  0  0
   -4.5415    0.6377    0.2694 H   0  0  0  0  0  0  0  0  0  0  0  0
  1  2  2  0  0  0  0
  2  3  1  0  0  0  0
  3  4  4  0  0  0  0
  4  5  4  0  0  0  0
  5  6  4  0  0  0  0
  6  7  4  0  0  0  0
  7  8  1  0  0  0  0
  8  9  2  0  0  0  0
  3 10  4  0  0  0  0
  7 10  4  0  0  0  0
 10 11  1  0  0  0  0
 11 12  3  0  0  0  0
  1 13  1  0  0  0  0
  1 14  1  0  0  0  0
  2 15  1  0  0  0  0
  4 16  1  0  0  0  0
  5 17  1  0  0  0  0
  6 18  1  0  0  0  0
  8 19  1  0  0  0  0
  9 20  1  0  0  0  0
  9 21  1  0  0  0  0
M  END
