
 OpenBabel02032211083D

 38 39  0  0  1  0  0  0  0  0999 V2000
    0.9404    0.5209   -0.2494 C   0  0  0  0  0  0  0  0  0  0  0  0
    2.2541    0.2874   -0.1289 C   0  0  0  0  0  0  0  0  0  0  0  0
    2.9000   -0.9675   -0.5315 C   0  0  0  0  0  0  0  0  0  0  0  0
    3.9711   -1.4396    0.2209 C   0  0  0  0  0  0  0  0  0  0  0  0
    4.5188   -2.7001   -0.0362 C   0  0  0  0  0  0  0  0  0  0  0  0
    4.0377   -3.5033   -1.0779 C   0  0  0  0  0  0  0  0  0  0  0  0
    4.4074   -4.8154   -1.2667 O   0  0  0  0  0  0  0  0  0  0  0  0
    5.6106   -5.3125   -0.6727 C   0  0  0  0  0  0  0  0  0  0  0  0
    5.4326   -6.7308   -0.0837 C   0  0  3  0  0  0  0  0  0  0  0  0
    4.4093   -6.8510    1.0516 C   0  0  0  0  0  0  0  0  0  0  0  0
    4.9056   -6.2303    2.3533 C   0  0  0  0  0  0  0  0  0  0  0  0
    6.3001   -6.7359    2.7051 C   0  0  0  0  0  0  0  0  0  0  0  0
    7.2444   -6.6554    1.5143 C   0  0  0  0  0  0  0  0  0  0  0  0
    6.6961   -7.2744    0.3518 O   0  0  0  0  0  0  0  0  0  0  0  0
    3.0531   -2.9717   -1.9443 C   0  0  0  0  0  0  0  0  0  0  0  0
    2.5756   -3.7136   -3.1341 C   0  0  0  0  0  0  0  0  0  0  0  0
    2.0920   -3.1445   -4.2473 C   0  0  0  0  0  0  0  0  0  0  0  0
    2.4826   -1.7175   -1.6366 C   0  0  0  0  0  0  0  0  0  0  0  0
    0.5093    1.4471    0.1164 H   0  0  0  0  0  0  0  0  0  0  0  0
    0.2562   -0.2033   -0.6811 H   0  0  0  0  0  0  0  0  0  0  0  0
    2.8845    1.0290    0.3555 H   0  0  0  0  0  0  0  0  0  0  0  0
    4.3590   -0.8595    1.0545 H   0  0  0  0  0  0  0  0  0  0  0  0
    5.2982   -3.0167    0.6462 H   0  0  0  0  0  0  0  0  0  0  0  0
    6.0380   -4.6644    0.0869 H   0  0  0  0  0  0  0  0  0  0  0  0
    6.3665   -5.3593   -1.4661 H   0  0  0  0  0  0  0  0  0  0  0  0
    5.0831   -7.3774   -0.8975 H   0  0  0  0  0  0  0  0  0  0  0  0
    4.2404   -7.9202    1.2444 H   0  0  0  0  0  0  0  0  0  0  0  0
    3.4425   -6.4233    0.7659 H   0  0  0  0  0  0  0  0  0  0  0  0
    4.2129   -6.4697    3.1683 H   0  0  0  0  0  0  0  0  0  0  0  0
    4.9206   -5.1374    2.2614 H   0  0  0  0  0  0  0  0  0  0  0  0
    6.2215   -7.7832    3.0249 H   0  0  0  0  0  0  0  0  0  0  0  0
    6.7049   -6.1730    3.5506 H   0  0  0  0  0  0  0  0  0  0  0  0
    8.1772   -7.1763    1.7533 H   0  0  0  0  0  0  0  0  0  0  0  0
    7.5176   -5.6181    1.2944 H   0  0  0  0  0  0  0  0  0  0  0  0
    2.6588   -4.7954   -3.0896 H   0  0  0  0  0  0  0  0  0  0  0  0
    2.0171   -2.0712   -4.3839 H   0  0  0  0  0  0  0  0  0  0  0  0
    1.7698   -3.7586   -5.0872 H   0  0  0  0  0  0  0  0  0  0  0  0
    1.6771   -1.3306   -2.2544 H   0  0  0  0  0  0  0  0  0  0  0  0
  1  2  2  0  0  0  0
  1 19  1  0  0  0  0
  1 20  1  0  0  0  0
  2  3  1  0  0  0  0
  2 21  1  0  0  0  0
  3  4  1  0  0  0  0
  3 18  2  0  0  0  0
  4  5  2  0  0  0  0
  4 22  1  0  0  0  0
  5  6  1  0  0  0  0
  5 23  1  0  0  0  0
  6  7  1  0  0  0  0
  6 15  2  0  0  0  0
  7  8  1  0  0  0  0
  8  9  1  0  0  0  0
  8 24  1  0  0  0  0
  8 25  1  0  0  0  0
  9 10  1  0  0  0  0
  9 14  1  0  0  0  0
  9 26  1  0  0  0  0
 10 11  1  0  0  0  0
 10 27  1  0  0  0  0
 10 28  1  0  0  0  0
 11 12  1  0  0  0  0
 11 29  1  0  0  0  0
 11 30  1  0  0  0  0
 12 13  1  0  0  0  0
 12 31  1  0  0  0  0
 12 32  1  0  0  0  0
 13 14  1  0  0  0  0
 13 33  1  0  0  0  0
 13 34  1  0  0  0  0
 15 16  1  0  0  0  0
 15 18  1  0  0  0  0
 16 17  2  0  0  0  0
 16 35  1  0  0  0  0
 17 36  1  0  0  0  0
 17 37  1  0  0  0  0
 18 38  1  0  0  0  0
M  END
