
  xtb     02032211083D
 xtb: 6.4.1 (23d549d)
 38 39  0     0  0            999 V2000
    1.9177    1.0191    1.0446 c   0  0  0  0  0  0  0  0  0  0  0  0
    1.6470    0.1383    0.0886 c   0  0  0  0  0  0  0  0  0  0  0  0
    2.4377   -1.0324   -0.2666 c   0  0  0  0  0  0  0  0  0  0  0  0
    3.5885   -1.4187    0.4236 c   0  0  0  0  0  0  0  0  0  0  0  0
    4.3190   -2.5085    0.0086 c   0  0  0  0  0  0  0  0  0  0  0  0
    3.9260   -3.2755   -1.0901 c   0  0  0  0  0  0  0  0  0  0  0  0
    4.7703   -4.2933   -1.4374 o   0  0  0  0  0  0  0  0  0  0  0  0
    5.0055   -4.5684   -2.8032 c   0  0  0  0  0  0  0  0  0  0  0  0
    6.5090   -4.5920   -3.1741 c   0  0  0  0  0  0  0  0  0  0  0  0
    7.3863   -5.3493   -2.1676 c   0  0  0  0  0  0  0  0  0  0  0  0
    7.7225   -4.5002   -0.9431 c   0  0  0  0  0  0  0  0  0  0  0  0
    8.2778   -3.1540   -1.3985 c   0  0  0  0  0  0  0  0  0  0  0  0
    7.2787   -2.4962   -2.3468 c   0  0  0  0  0  0  0  0  0  0  0  0
    7.0127   -3.3067   -3.4747 o   0  0  0  0  0  0  0  0  0  0  0  0
    2.7255   -2.9607   -1.7434 c   0  0  0  0  0  0  0  0  0  0  0  0
    2.1059   -3.7989   -2.7763 c   0  0  0  0  0  0  0  0  0  0  0  0
    1.9878   -5.1160   -2.6890 c   0  0  0  0  0  0  0  0  0  0  0  0
    2.0322   -1.8246   -1.3363 c   0  0  0  0  0  0  0  0  0  0  0  0
    1.2705    1.8589    1.2309 h   0  0  0  0  0  0  0  0  0  0  0  0
    2.7861    0.9463    1.6763 h   0  0  0  0  0  0  0  0  0  0  0  0
    0.7569    0.2772   -0.5134 h   0  0  0  0  0  0  0  0  0  0  0  0
    3.9268   -0.8539    1.2775 h   0  0  0  0  0  0  0  0  0  0  0  0
    5.2224   -2.7893    0.5291 h   0  0  0  0  0  0  0  0  0  0  0  0
    4.5217   -3.8227   -3.4418 h   0  0  0  0  0  0  0  0  0  0  0  0
    4.5821   -5.5532   -3.0387 h   0  0  0  0  0  0  0  0  0  0  0  0
    6.5539   -5.1110   -4.1411 h   0  0  0  0  0  0  0  0  0  0  0  0
    8.3155   -5.6243   -2.6724 h   0  0  0  0  0  0  0  0  0  0  0  0
    6.8718   -6.2627   -1.8686 h   0  0  0  0  0  0  0  0  0  0  0  0
    8.4539   -5.0238   -0.3237 h   0  0  0  0  0  0  0  0  0  0  0  0
    6.8211   -4.3466   -0.3514 h   0  0  0  0  0  0  0  0  0  0  0  0
    9.2222   -3.3048   -1.9263 h   0  0  0  0  0  0  0  0  0  0  0  0
    8.4567   -2.4974   -0.5461 h   0  0  0  0  0  0  0  0  0  0  0  0
    7.6822   -1.5682   -2.7599 h   0  0  0  0  0  0  0  0  0  0  0  0
    6.3504   -2.2620   -1.8094 h   0  0  0  0  0  0  0  0  0  0  0  0
    1.6524   -3.2656   -3.6034 h   0  0  0  0  0  0  0  0  0  0  0  0
    2.3848   -5.6648   -1.8509 h   0  0  0  0  0  0  0  0  0  0  0  0
    1.4787   -5.6913   -3.4435 h   0  0  0  0  0  0  0  0  0  0  0  0
    1.1205   -1.5721   -1.8610 h   0  0  0  0  0  0  0  0  0  0  0  0
  1  2  2  0  0  0  0
  2  3  1  0  0  0  0
  3  4  4  0  0  0  0
  4  5  4  0  0  0  0
  5  6  4  0  0  0  0
  6  7  1  0  0  0  0
  7  8  1  0  0  0  0
  8  9  1  0  0  0  0
  9 10  1  0  0  0  0
 10 11  1  0  0  0  0
 11 12  1  0  0  0  0
 12 13  1  0  0  0  0
  9 14  1  0  0  0  0
 13 14  1  0  0  0  0
  6 15  4  0  0  0  0
 15 16  1  0  0  0  0
 16 17  2  0  0  0  0
  3 18  4  0  0  0  0
 15 18  4  0  0  0  0
  1 19  1  0  0  0  0
  1 20  1  0  0  0  0
  2 21  1  0  0  0  0
  4 22  1  0  0  0  0
  5 23  1  0  0  0  0
  8 24  1  0  0  0  0
  8 25  1  0  0  0  0
  9 26  1  0  0  0  0
 10 27  1  0  0  0  0
 10 28  1  0  0  0  0
 11 29  1  0  0  0  0
 11 30  1  0  0  0  0
 12 31  1  0  0  0  0
 12 32  1  0  0  0  0
 13 33  1  0  0  0  0
 13 34  1  0  0  0  0
 16 35  1  0  0  0  0
 17 36  1  0  0  0  0
 17 37  1  0  0  0  0
 18 38  1  0  0  0  0
M  END
