
  xtb     02032211353D
 xtb: 6.4.1 (23d549d)
 53 53  0     0  0            999 V2000
    4.7717   -0.1550    0.9683 C   0  0  0  0  0  0  0  0  0  0  0  0
    3.8151    0.0582    0.0683 C   0  0  0  0  0  0  0  0  0  0  0  0
    2.5069   -0.5374    0.1031 C   0  0  0  0  0  0  0  0  0  0  0  0
    2.1605   -1.8269    1.2126 S   0  0  0  0  0  0  0  0  0  0  0  0
    0.5551   -2.0009    0.5755 C   0  0  0  0  0  0  0  0  0  0  0  0
   -0.3207   -3.0235    1.0788 C   0  0  0  0  0  0  0  0  0  0  0  0
   -0.0771   -3.7783    2.1472 C   0  0  0  0  0  0  0  0  0  0  0  0
    0.3055   -1.0864   -0.4276 C   0  0  0  0  0  0  0  0  0  0  0  0
   -1.0184   -1.0271   -1.1293 C   0  0  0  0  0  0  0  0  0  0  0  0
   -2.1024   -0.3861   -0.2539 C   0  0  0  0  0  0  0  0  0  0  0  0
   -3.4226   -0.1803   -0.9967 C   0  0  0  0  0  0  0  0  0  0  0  0
   -4.1084   -1.4635   -1.4714 C   0  0  0  0  0  0  0  0  0  0  0  0
   -4.4863   -2.4440   -0.3601 C   0  0  0  0  0  0  0  0  0  0  0  0
   -5.4949   -1.8726    0.6291 C   0  0  0  0  0  0  0  0  0  0  0  0
    1.4172   -0.2455   -0.6919 C   0  0  0  0  0  0  0  0  0  0  0  0
    1.4545    0.8542   -1.7118 C   0  0  0  0  0  0  0  0  0  0  0  0
    1.5188    2.2548   -1.0861 C   0  0  0  0  0  0  0  0  0  0  0  0
    0.2847    2.5712   -0.2471 C   0  0  0  0  0  0  0  0  0  0  0  0
    0.3504    3.9390    0.4322 C   0  0  0  0  0  0  0  0  0  0  0  0
    0.2659    5.1103   -0.5444 C   0  0  0  0  0  0  0  0  0  0  0  0
    0.2193    6.4467    0.1865 C   0  0  0  0  0  0  0  0  0  0  0  0
    5.7405    0.3046    0.8833 H   0  0  0  0  0  0  0  0  0  0  0  0
    4.6105   -0.7960    1.8192 H   0  0  0  0  0  0  0  0  0  0  0  0
    4.0071    0.7109   -0.7730 H   0  0  0  0  0  0  0  0  0  0  0  0
   -1.2334   -3.1714    0.5172 H   0  0  0  0  0  0  0  0  0  0  0  0
    0.8196   -3.6536    2.7312 H   0  0  0  0  0  0  0  0  0  0  0  0
   -0.7654   -4.5391    2.4706 H   0  0  0  0  0  0  0  0  0  0  0  0
   -1.3205   -2.0404   -1.4019 H   0  0  0  0  0  0  0  0  0  0  0  0
   -0.9276   -0.4545   -2.0531 H   0  0  0  0  0  0  0  0  0  0  0  0
   -1.7469    0.5884    0.0854 H   0  0  0  0  0  0  0  0  0  0  0  0
   -2.2619   -0.9963    0.6358 H   0  0  0  0  0  0  0  0  0  0  0  0
   -3.2373    0.4481   -1.8725 H   0  0  0  0  0  0  0  0  0  0  0  0
   -4.1045    0.3693   -0.3452 H   0  0  0  0  0  0  0  0  0  0  0  0
   -3.4604   -1.9757   -2.1860 H   0  0  0  0  0  0  0  0  0  0  0  0
   -5.0183   -1.1810   -2.0077 H   0  0  0  0  0  0  0  0  0  0  0  0
   -3.5924   -2.7600    0.1800 H   0  0  0  0  0  0  0  0  0  0  0  0
   -4.9147   -3.3351   -0.8263 H   0  0  0  0  0  0  0  0  0  0  0  0
   -5.0649   -1.0505    1.1952 H   0  0  0  0  0  0  0  0  0  0  0  0
   -5.8075   -2.6400    1.3339 H   0  0  0  0  0  0  0  0  0  0  0  0
   -6.3768   -1.5082    0.1061 H   0  0  0  0  0  0  0  0  0  0  0  0
    0.5724    0.7997   -2.3503 H   0  0  0  0  0  0  0  0  0  0  0  0
    2.3303    0.7160   -2.3525 H   0  0  0  0  0  0  0  0  0  0  0  0
    1.6147    2.9836   -1.8931 H   0  0  0  0  0  0  0  0  0  0  0  0
    2.4037    2.3335   -0.4520 H   0  0  0  0  0  0  0  0  0  0  0  0
    0.1900    1.8041    0.5256 H   0  0  0  0  0  0  0  0  0  0  0  0
   -0.6058    2.5269   -0.8794 H   0  0  0  0  0  0  0  0  0  0  0  0
    1.2776    4.0119    1.0057 H   0  0  0  0  0  0  0  0  0  0  0  0
   -0.4798    4.0162    1.1391 H   0  0  0  0  0  0  0  0  0  0  0  0
   -0.6312    5.0023   -1.1589 H   0  0  0  0  0  0  0  0  0  0  0  0
    1.1300    5.1002   -1.2108 H   0  0  0  0  0  0  0  0  0  0  0  0
   -0.6503    6.4959    0.8385 H   0  0  0  0  0  0  0  0  0  0  0  0
    0.1639    7.2701   -0.5220 H   0  0  0  0  0  0  0  0  0  0  0  0
    1.1105    6.5780    0.7964 H   0  0  0  0  0  0  0  0  0  0  0  0
  1  2  2  0  0  0  0
  2  3  1  0  0  0  0
  3  4  1  0  0  0  0
  4  5  1  0  0  0  0
  5  6  1  0  0  0  0
  6  7  2  0  0  0  0
  5  8  4  0  0  0  0
  8  9  1  0  0  0  0
  9 10  1  0  0  0  0
 10 11  1  0  0  0  0
 11 12  1  0  0  0  0
 12 13  1  0  0  0  0
 13 14  1  0  0  0  0
  3 15  4  0  0  0  0
  8 15  4  0  0  0  0
 15 16  1  0  0  0  0
 16 17  1  0  0  0  0
 17 18  1  0  0  0  0
 18 19  1  0  0  0  0
 19 20  1  0  0  0  0
 20 21  1  0  0  0  0
  1 22  1  0  0  0  0
  1 23  1  0  0  0  0
  2 24  1  0  0  0  0
  6 25  1  0  0  0  0
  7 26  1  0  0  0  0
  7 27  1  0  0  0  0
  9 28  1  0  0  0  0
  9 29  1  0  0  0  0
 10 30  1  0  0  0  0
 10 31  1  0  0  0  0
 11 32  1  0  0  0  0
 11 33  1  0  0  0  0
 12 34  1  0  0  0  0
 12 35  1  0  0  0  0
 13 36  1  0  0  0  0
 13 37  1  0  0  0  0
 14 38  1  0  0  0  0
 14 39  1  0  0  0  0
 14 40  1  0  0  0  0
 16 41  1  0  0  0  0
 16 42  1  0  0  0  0
 17 43  1  0  0  0  0
 17 44  1  0  0  0  0
 18 45  1  0  0  0  0
 18 46  1  0  0  0  0
 19 47  1  0  0  0  0
 19 48  1  0  0  0  0
 20 49  1  0  0  0  0
 20 50  1  0  0  0  0
 21 51  1  0  0  0  0
 21 52  1  0  0  0  0
 21 53  1  0  0  0  0
M  END
