
 OpenBabel02032210513D

 23 24  0  0  0  0  0  0  0  0999 V2000
    2.1356    1.1923   -0.7169 C   0  0  0  0  0  0  0  0  0  0  0  0
    2.5872    0.2034    0.0629 C   0  0  0  0  0  0  0  0  0  0  0  0
    3.1598   -1.1011   -0.4002 C   0  0  0  0  0  0  0  0  0  0  0  0
    4.0477   -1.8378    0.4215 C   0  0  0  0  0  0  0  0  0  0  0  0
    4.5230   -1.4467    1.7799 C   0  0  0  0  0  0  0  0  0  0  0  0
    5.3786   -2.1662    2.5234 C   0  0  0  0  0  0  0  0  0  0  0  0
    5.9001   -3.3455    2.0966 F   0  0  0  0  0  0  0  0  0  0  0  0
    5.7424   -1.7055    3.7488 F   0  0  0  0  0  0  0  0  0  0  0  0
    4.5429   -3.2302   -0.3991 S   0  0  0  0  0  0  0  0  0  0  0  0
    3.6408   -2.9509   -1.7708 C   0  0  0  0  0  0  0  0  0  0  0  0
    3.5701   -3.7665   -2.8978 C   0  0  0  0  0  0  0  0  0  0  0  0
    2.7288   -3.3817   -3.9452 C   0  0  0  0  0  0  0  0  0  0  0  0
    1.9710   -2.2057   -3.8424 C   0  0  0  0  0  0  0  0  0  0  0  0
    2.0575   -1.3964   -2.6974 C   0  0  0  0  0  0  0  0  0  0  0  0
    2.9213   -1.7640   -1.6446 C   0  0  0  0  0  0  0  0  0  0  0  0
    1.7639    2.1028   -0.2573 H   0  0  0  0  0  0  0  0  0  0  0  0
    2.1611    1.1692   -1.7918 H   0  0  0  0  0  0  0  0  0  0  0  0
    2.5697    0.4109    1.1250 H   0  0  0  0  0  0  0  0  0  0  0  0
    4.1726   -0.5214    2.2178 H   0  0  0  0  0  0  0  0  0  0  0  0
    4.1465   -4.6806   -2.9603 H   0  0  0  0  0  0  0  0  0  0  0  0
    2.6519   -3.9987   -4.8314 H   0  0  0  0  0  0  0  0  0  0  0  0
    1.3082   -1.9242   -4.6502 H   0  0  0  0  0  0  0  0  0  0  0  0
    1.4288   -0.5291   -2.6689 H   0  0  0  0  0  0  0  0  0  0  0  0
  1  2  2  0  0  0  0
  1 16  1  0  0  0  0
  1 17  1  0  0  0  0
  2  3  1  0  0  0  0
  2 18  1  0  0  0  0
  3  4  2  0  0  0  0
  3 15  1  0  0  0  0
  4  5  1  0  0  0  0
  4  9  1  0  0  0  0
  5  6  2  0  0  0  0
  5 19  1  0  0  0  0
  6  7  1  0  0  0  0
  6  8  1  0  0  0  0
  9 10  1  0  0  0  0
 10 11  1  0  0  0  0
 10 15  2  0  0  0  0
 11 12  2  0  0  0  0
 11 20  1  0  0  0  0
 12 13  1  0  0  0  0
 12 21  1  0  0  0  0
 13 14  2  0  0  0  0
 13 22  1  0  0  0  0
 14 15  1  0  0  0  0
 14 23  1  0  0  0  0
M  END
