48

F          0.86528       -0.13948        0.62507
C          2.20854       -0.18279        0.42403
F          2.67987       -1.03772       -0.51650
C          3.00127        0.60756        1.16912
C          4.49156        0.70727        1.11143
C          5.19468        1.60627        0.28656
C          6.59205        1.63290        0.28927
C          7.33720        0.75800        1.10500
N          8.78330        0.78400        1.08810
C          9.51350        0.43410        2.28300
C          8.83538        0.06939        3.45952
C          9.53551       -0.28782        4.61356
C         10.94711       -0.27440        4.64676
C         11.70298       -0.65690        5.89395
C         11.02295       -1.04265        7.07453
C         11.72711       -1.40413        8.22659
C         13.11967       -1.38120        8.23471
C         13.81350       -1.00093        7.08825
C         13.11827       -0.64709        5.92793
C         11.62259        0.10783        3.46677
C         10.91951        0.44491        2.30718
C          9.49990        1.15460       -0.11500
C         10.76054        1.79132       -0.05185
C         11.44324        2.14869       -1.21797
C         10.88581        1.88144       -2.46749
C          9.64417        1.25332       -2.55523
C          8.95668        0.89072       -1.39385
C          6.62904       -0.13476        1.93231
C          5.23227       -0.15543        1.93655
H          2.49684        1.23593        1.89867
H          4.69752        2.29919       -0.36889
H          7.09055        2.33131       -0.37031
H          7.75368        0.03943        3.48369
H          8.94663       -0.55565        5.47642
H          9.94677       -1.09304        7.12464
H         11.18852       -1.70566        9.11597
H         13.66126       -1.65855        9.12991
H         14.89575       -0.97835        7.09734
H         13.70865       -0.35023        5.07542
H         12.69934        0.13343        3.40880
H         11.48251        0.73082        1.42801
H         11.23270        2.00202        0.89803
H         12.40923        2.63267       -1.15104
H         11.41611        2.16103       -3.36888
H          9.21036        1.04869       -3.52549
H          7.98960        0.41871       -1.50270
H          7.15231       -0.81365        2.59259
H          4.72735       -0.85651        2.59008
48

F          0.83740        1.51301        0.78224
C          2.17853        1.73140        0.80078
F          2.61967        2.98102        0.51530
C          2.99855        0.70460        1.08621
C          4.49162        0.72986        1.15203
C          5.22921        1.00709        2.31914
C          6.62659        1.01497        2.29459
C          7.33720        0.75800        1.10500
N          8.78330        0.78400        1.08810
C          9.51350        0.43410        2.28300
C          8.98006       -0.47779        3.21088
C          9.68889       -0.83464        4.35971
C         10.95511       -0.27667        4.64120
C         11.71895       -0.65951        5.88342
C         11.57358       -1.94088        6.46820
C         12.28922       -2.29508        7.61543
C         13.15626       -1.38277        8.21191
C         13.31431       -0.11365        7.65990
C         12.61032        0.24663        6.50687
C         11.47894        0.65051        3.71347
C         10.77638        0.99007        2.55429
C          9.49990        1.15460       -0.11500
C          8.81319        1.49991       -1.30151
C          9.51294        1.85270       -2.45889
C         10.90693        1.86761       -2.45916
C         11.60633        1.53197       -1.30068
C         10.91374        1.18061       -0.13887
C          6.59481        0.47546       -0.05775
C          5.19823        0.45858       -0.03154
H          2.51634       -0.24967        1.28214
H          4.75936        1.22030        3.26290
H          7.15193        1.24578        3.21223
H          8.01490       -0.93633        3.03833
H          9.21519       -1.53974        5.02414
H         10.92822       -2.69373        6.04400
H         12.17144       -3.28337        8.04133
H         13.70608       -1.65971        9.10220
H         13.98443        0.59645        8.12739
H         12.76426        1.24632        6.13221
H         12.44370        1.11262        3.85176
H         11.22009        1.70536        1.87375
H          7.73240        1.51472       -1.33696
H          8.97087        2.11750       -3.35772
H         11.44615        2.13952       -3.35761
H         12.68864        1.54077       -1.30215
H         11.49156        0.91234        0.73522
H          7.09126        0.25149       -0.99265
H          4.66639        0.23424       -0.94826
48

F          0.87491        0.92031        0.15879
C          2.22478        1.00809        0.02915
F          2.72108        1.38802       -1.17377
C          2.99855        0.70460        1.08621
C          4.49162        0.72986        1.15203
C          5.22921        1.00709        2.31914
C          6.62659        1.01497        2.29459
C          7.33720        0.75800        1.10500
N          8.78330        0.78400        1.08810
C          9.51350        0.43410        2.28300
C          8.98006       -0.47779        3.21088
C          9.68889       -0.83464        4.35971
C         10.95511       -0.27667        4.64120
C         11.71895       -0.65951        5.88342
C         11.57358       -1.94088        6.46820
C         12.28922       -2.29508        7.61543
C         13.15626       -1.38277        8.21191
C         13.31431       -0.11365        7.65990
C         12.61032        0.24663        6.50687
C         11.47894        0.65051        3.71347
C         10.77638        0.99007        2.55429
C          9.49990        1.15460       -0.11500
C          8.94234        2.05177       -1.05459
C          9.63947        2.40092       -2.21465
C         10.90199        1.86447       -2.46308
C         11.47307        0.97842       -1.55056
C         10.78333        0.62650       -0.38724
C          6.59481        0.47546       -0.05775
C          5.19823        0.45858       -0.03154
H          2.47422        0.39981        1.98828
H          4.75936        1.22030        3.26290
H          7.15193        1.24578        3.21223
H          8.01490       -0.93633        3.03833
H          9.21519       -1.53974        5.02414
H         10.92822       -2.69373        6.04400
H         12.17144       -3.28337        8.04133
H         13.70608       -1.65971        9.10220
H         13.98443        0.59645        8.12739
H         12.76426        1.24632        6.13221
H         12.44370        1.11262        3.85176
H         11.22009        1.70536        1.87375
H          7.97216        2.50054       -0.89048
H          9.19877        3.09200       -2.92180
H         11.43873        2.13536       -3.36331
H         12.45203        0.55983       -1.74525
H         11.25296       -0.07498        0.28898
H          7.09126        0.25149       -0.99265
H          4.66639        0.23424       -0.94826
48

F          0.87491        0.92031        0.15879
C          2.22478        1.00809        0.02915
F          2.72108        1.38802       -1.17377
C          2.99855        0.70460        1.08621
C          4.49162        0.72986        1.15203
C          5.22921        1.00709        2.31914
C          6.62659        1.01497        2.29459
C          7.33720        0.75800        1.10500
N          8.78330        0.78400        1.08810
C          9.51350        0.43410        2.28300
C          8.98006       -0.47779        3.21088
C          9.68889       -0.83464        4.35971
C         10.95511       -0.27667        4.64120
C         11.71895       -0.65951        5.88342
C         11.57358       -1.94088        6.46820
C         12.28922       -2.29508        7.61543
C         13.15626       -1.38277        8.21191
C         13.31431       -0.11365        7.65990
C         12.61032        0.24663        6.50687
C         11.47894        0.65051        3.71347
C         10.77638        0.99007        2.55429
C          9.49990        1.15460       -0.11500
C          8.81319        1.49991       -1.30151
C          9.51294        1.85270       -2.45889
C         10.90693        1.86761       -2.45916
C         11.60633        1.53197       -1.30068
C         10.91374        1.18061       -0.13887
C          6.59481        0.47546       -0.05775
C          5.19823        0.45858       -0.03154
H          2.47422        0.39981        1.98828
H          4.75936        1.22030        3.26290
H          7.15193        1.24578        3.21223
H          8.01490       -0.93633        3.03833
H          9.21519       -1.53974        5.02414
H         10.92822       -2.69373        6.04400
H         12.17144       -3.28337        8.04133
H         13.70608       -1.65971        9.10220
H         13.98443        0.59645        8.12739
H         12.76426        1.24632        6.13221
H         12.44370        1.11262        3.85176
H         11.22009        1.70536        1.87375
H          7.73240        1.51472       -1.33696
H          8.97087        2.11750       -3.35772
H         11.44615        2.13952       -3.35761
H         12.68864        1.54077       -1.30215
H         11.49156        0.91234        0.73522
H          7.09126        0.25149       -0.99265
H          4.66639        0.23424       -0.94826
48

F          0.91341       -0.38163        1.44996
C          2.26811       -0.48763        1.43609
F          2.81027       -1.70014        1.70726
C          3.00127        0.60756        1.16912
C          4.49156        0.70727        1.11143
C          5.19468        1.60627        0.28656
C          6.59205        1.63290        0.28927
C          7.33720        0.75800        1.10500
N          8.78330        0.78400        1.08810
C          9.51350        0.43410        2.28300
C         10.78503       -0.16047        2.20079
C         11.50470       -0.48485        3.35250
C         10.97275       -0.24784        4.63887
C         11.74851       -0.60122        5.88243
C         13.16433       -0.58319        5.89366
C         13.88016       -0.90385        7.05061
C         13.20708       -1.25835        8.21728
C         11.81452       -1.28880        8.23230
C         11.08945       -0.96015        7.08289
C          9.68862        0.33520        4.71519
C          8.97946        0.67769        3.56090
C          9.49990        1.15460       -0.11500
C         10.76054        1.79132       -0.05185
C         11.44324        2.14869       -1.21797
C         10.88581        1.88144       -2.46749
C          9.64417        1.25332       -2.55523
C          8.95668        0.89072       -1.39385
C          6.62904       -0.13476        1.93231
C          5.23227       -0.15543        1.93655
H          2.44232        1.52112        0.98329
H          4.69752        2.29919       -0.36889
H          7.09055        2.33131       -0.37031
H         11.23802       -0.35849        1.23790
H         12.47282       -0.93802        3.20961
H         13.74007       -0.30354        5.02560
H         14.96230       -0.87439        7.04126
H         13.76509       -1.50929        9.11018
H         11.29253       -1.56963        9.13812
H         10.01427       -1.01290        7.15116
H          9.21814        0.55686        5.66015
H          7.99892        1.12259        3.67155
H         11.23270        2.00202        0.89803
H         12.40923        2.63267       -1.15104
H         11.41611        2.16103       -3.36888
H          9.21036        1.04869       -3.52549
H          7.98960        0.41871       -1.50270
H          7.15231       -0.81365        2.59259
H          4.72735       -0.85651        2.59008
48

F          0.91341       -0.38163        1.44996
C          2.26811       -0.48763        1.43609
F          2.81027       -1.70014        1.70726
C          3.00127        0.60756        1.16912
C          4.49156        0.70727        1.11143
C          5.19468        1.60627        0.28656
C          6.59205        1.63290        0.28927
C          7.33720        0.75800        1.10500
N          8.78330        0.78400        1.08810
C          9.51350        0.43410        2.28300
C         10.78503       -0.16047        2.20079
C         11.50470       -0.48485        3.35250
C         10.97275       -0.24784        4.63887
C         11.74851       -0.60122        5.88243
C         13.03706       -1.18285        5.80266
C         13.75662       -1.50200        6.95770
C         13.20938       -1.25999        8.21538
C         11.94149       -0.69309        8.32237
C         11.21798       -0.36128        7.17289
C          9.68862        0.33520        4.71519
C          8.97946        0.67769        3.56090
C          9.49990        1.15460       -0.11500
C         10.76054        1.79132       -0.05185
C         11.44324        2.14869       -1.21797
C         10.88581        1.88144       -2.46749
C          9.64417        1.25332       -2.55523
C          8.95668        0.89072       -1.39385
C          6.62904       -0.13476        1.93231
C          5.23227       -0.15543        1.93655
H          2.44232        1.52112        0.98329
H          4.69752        2.29919       -0.36889
H          7.09055        2.33131       -0.37031
H         11.23802       -0.35849        1.23790
H         12.47282       -0.93802        3.20961
H         13.51819       -1.38076        4.85791
H         14.74456       -1.93693        6.87516
H         13.76838       -1.51170        9.10744
H         11.51493       -0.51034        9.30039
H         10.23731        0.06379        7.31798
H          9.21814        0.55686        5.66015
H          7.99892        1.12259        3.67155
H         11.23270        2.00202        0.89803
H         12.40923        2.63267       -1.15104
H         11.41611        2.16103       -3.36888
H          9.21036        1.04869       -3.52549
H          7.98960        0.41871       -1.50270
H          7.15231       -0.81365        2.59259
H          4.72735       -0.85651        2.59008
48

F          0.80178        0.87140        1.83646
C          2.13513        0.93343        2.09138
F          2.52403        1.23795        3.35379
C          2.99855        0.70460        1.08621
C          4.49162        0.72986        1.15203
C          5.22921        1.00709        2.31914
C          6.62659        1.01497        2.29459
C          7.33720        0.75800        1.10500
N          8.78330        0.78400        1.08810
C          9.51350        0.43410        2.28300
C          8.98006       -0.47779        3.21088
C          9.68889       -0.83464        4.35971
C         10.95511       -0.27667        4.64120
C         11.71895       -0.65951        5.88342
C         11.19248       -1.59173        6.81014
C         11.90689       -1.95017        7.95683
C         13.15352       -1.38442        8.21308
C         13.69256       -0.46102        7.32025
C         12.99000       -0.10348        6.16550
C         11.47894        0.65051        3.71347
C         10.77638        0.99007        2.55429
C          9.49990        1.15460       -0.11500
C          8.81319        1.49991       -1.30151
C          9.51294        1.85270       -2.45889
C         10.90693        1.86761       -2.45916
C         11.60633        1.53197       -1.30068
C         10.91374        1.18061       -0.13887
C          6.59481        0.47546       -0.05775
C          5.19823        0.45858       -0.03154
H          2.55522        0.48522        0.11829
H          4.75936        1.22030        3.26290
H          7.15193        1.24578        3.21223
H          8.01490       -0.93633        3.03833
H          9.21519       -1.53974        5.02414
H         10.23931       -2.07317        6.65886
H         11.49120       -2.67238        8.64792
H         13.70211       -1.66205        9.10391
H         14.65919       -0.01794        7.52313
H         13.45203        0.62482        5.51776
H         12.44370        1.11262        3.85176
H         11.22009        1.70536        1.87375
H          7.73240        1.51472       -1.33696
H          8.97087        2.11750       -3.35772
H         11.44615        2.13952       -3.35761
H         12.68864        1.54077       -1.30215
H         11.49156        0.91234        0.73522
H          7.09126        0.25149       -0.99265
H          4.66639        0.23424       -0.94826
48

F          0.91341       -0.38163        1.44996
C          2.26811       -0.48763        1.43609
F          2.81027       -1.70014        1.70726
C          3.00127        0.60756        1.16912
C          4.49156        0.70727        1.11143
C          5.19468        1.60627        0.28656
C          6.59205        1.63290        0.28927
C          7.33720        0.75800        1.10500
N          8.78330        0.78400        1.08810
C          9.51350        0.43410        2.28300
C         10.78503       -0.16047        2.20079
C         11.50470       -0.48485        3.35250
C         10.97275       -0.24784        4.63887
C         11.74851       -0.60122        5.88243
C         13.03706       -1.18285        5.80266
C         13.75662       -1.50200        6.95770
C         13.20938       -1.25999        8.21538
C         11.94149       -0.69309        8.32237
C         11.21798       -0.36128        7.17289
C          9.68862        0.33520        4.71519
C          8.97946        0.67769        3.56090
C          9.49990        1.15460       -0.11500
C          8.81319        1.49991       -1.30151
C          9.51294        1.85270       -2.45889
C         10.90693        1.86761       -2.45916
C         11.60633        1.53197       -1.30068
C         10.91374        1.18061       -0.13887
C          6.62904       -0.13476        1.93231
C          5.23227       -0.15543        1.93655
H          2.44232        1.52112        0.98329
H          4.69752        2.29919       -0.36889
H          7.09055        2.33131       -0.37031
H         11.23802       -0.35849        1.23790
H         12.47282       -0.93802        3.20961
H         13.51819       -1.38076        4.85791
H         14.74456       -1.93693        6.87516
H         13.76838       -1.51170        9.10744
H         11.51493       -0.51034        9.30039
H         10.23731        0.06379        7.31798
H          9.21814        0.55686        5.66015
H          7.99892        1.12259        3.67155
H          7.73240        1.51472       -1.33696
H          8.97087        2.11750       -3.35772
H         11.44615        2.13952       -3.35761
H         12.68864        1.54077       -1.30215
H         11.49156        0.91234        0.73522
H          7.15231       -0.81365        2.59259
H          4.72735       -0.85651        2.59008
48

F          0.91341       -0.38163        1.44996
C          2.26811       -0.48763        1.43609
F          2.81027       -1.70014        1.70726
C          3.00127        0.60756        1.16912
C          4.49156        0.70727        1.11143
C          5.19468        1.60627        0.28656
C          6.59205        1.63290        0.28927
C          7.33720        0.75800        1.10500
N          8.78330        0.78400        1.08810
C          9.51350        0.43410        2.28300
C         10.78503       -0.16047        2.20079
C         11.50470       -0.48485        3.35250
C         10.97275       -0.24784        4.63887
C         11.74851       -0.60122        5.88243
C         13.16433       -0.58319        5.89366
C         13.88016       -0.90385        7.05061
C         13.20708       -1.25835        8.21728
C         11.81452       -1.28880        8.23230
C         11.08945       -0.96015        7.08289
C          9.68862        0.33520        4.71519
C          8.97946        0.67769        3.56090
C          9.49990        1.15460       -0.11500
C          8.81319        1.49991       -1.30151
C          9.51294        1.85270       -2.45889
C         10.90693        1.86761       -2.45916
C         11.60633        1.53197       -1.30068
C         10.91374        1.18061       -0.13887
C          6.62904       -0.13476        1.93231
C          5.23227       -0.15543        1.93655
H          2.44232        1.52112        0.98329
H          4.69752        2.29919       -0.36889
H          7.09055        2.33131       -0.37031
H         11.23802       -0.35849        1.23790
H         12.47282       -0.93802        3.20961
H         13.74007       -0.30354        5.02560
H         14.96230       -0.87439        7.04126
H         13.76509       -1.50929        9.11018
H         11.29253       -1.56963        9.13812
H         10.01427       -1.01290        7.15116
H          9.21814        0.55686        5.66015
H          7.99892        1.12259        3.67155
H          7.73240        1.51472       -1.33696
H          8.97087        2.11750       -3.35772
H         11.44615        2.13952       -3.35761
H         12.68864        1.54077       -1.30215
H         11.49156        0.91234        0.73522
H          7.15231       -0.81365        2.59259
H          4.72735       -0.85651        2.59008
48

F          0.84156        1.59611        1.26558
C          2.18451        1.77215        1.37572
F          2.63369        2.99791        1.74097
C          2.99824        0.73575        1.10748
C          4.49191        0.72003        1.16161
C          5.24030        0.38124        2.30536
C          6.63749        0.39544        2.27336
C          7.33720        0.75800        1.10500
N          8.78330        0.78400        1.08810
C          9.51350        0.43410        2.28300
C          8.98006       -0.47779        3.21088
C          9.68889       -0.83464        4.35971
C         10.95511       -0.27667        4.64120
C         11.71895       -0.65951        5.88342
C         11.57358       -1.94088        6.46820
C         12.28922       -2.29508        7.61543
C         13.15626       -1.38277        8.21191
C         13.31431       -0.11365        7.65990
C         12.61032        0.24663        6.50687
C         11.47894        0.65051        3.71347
C         10.77638        0.99007        2.55429
C          9.49990        1.15460       -0.11500
C          8.94234        2.05177       -1.05459
C          9.63947        2.40092       -2.21465
C         10.90199        1.86447       -2.46308
C         11.47307        0.97842       -1.55056
C         10.78333        0.62650       -0.38724
C          6.58400        1.09004       -0.03754
C          5.18755        1.06720       -0.00855
H          2.50974       -0.18888        0.81088
H          4.77917        0.10140        3.23593
H          7.17143        0.14041        3.17955
H          8.01490       -0.93633        3.03833
H          9.21519       -1.53974        5.02414
H         10.92822       -2.69373        6.04400
H         12.17144       -3.28337        8.04133
H         13.70608       -1.65971        9.10220
H         13.98443        0.59645        8.12739
H         12.76426        1.24632        6.13221
H         12.44370        1.11262        3.85176
H         11.22009        1.70536        1.87375
H          7.97216        2.50054       -0.89048
H          9.19877        3.09200       -2.92180
H         11.43873        2.13536       -3.36331
H         12.45203        0.55983       -1.74525
H         11.25296       -0.07498        0.28898
H          7.07172        1.35605       -0.96600
H          4.64718        1.32741       -0.91067
