
  xtb     02032211353D
 xtb: 6.4.1 (23d549d)
 28 29  0     0  0            999 V2000
    2.9592   -0.6936    2.6025 C   0  0  0  0  0  0  0  0  0  0  0  0
    3.5352   -0.1025    1.5635 C   0  0  0  0  0  0  0  0  0  0  0  0
    2.8024    0.2808    0.3609 C   0  0  0  0  0  0  0  0  0  0  0  0
    3.4499    0.9364   -0.6913 C   0  0  0  0  0  0  0  0  0  0  0  0
    2.7135    1.2928   -1.8064 C   0  0  0  0  0  0  0  0  0  0  0  0
    1.3659    0.9794   -1.8511 C   0  0  0  0  0  0  0  0  0  0  0  0
    0.8035    0.3122   -0.7597 C   0  0  0  0  0  0  0  0  0  0  0  0
   -0.6266   -0.0554   -0.7447 C   0  0  0  0  0  0  0  0  0  0  0  0
   -1.2771   -0.4735   -1.9074 C   0  0  0  0  0  0  0  0  0  0  0  0
   -2.6189   -0.8051   -1.8260 C   0  0  0  0  0  0  0  0  0  0  0  0
   -3.2660   -0.7118   -0.6077 C   0  0  0  0  0  0  0  0  0  0  0  0
   -2.5359   -0.2932    0.5091 C   0  0  0  0  0  0  0  0  0  0  0  0
   -3.0999   -0.1630    1.8493 C   0  0  0  0  0  0  0  0  0  0  0  0
   -4.3500   -0.4224    2.2101 C   0  0  0  0  0  0  0  0  0  0  0  0
   -1.2473    0.0232    0.4219 N   0  0  0  0  0  0  0  0  0  0  0  0
    1.5085   -0.0171    0.3097 N   0  0  0  0  0  0  0  0  0  0  0  0
    3.5122   -0.9686    3.4844 H   0  0  0  0  0  0  0  0  0  0  0  0
    1.9053   -0.9113    2.5807 H   0  0  0  0  0  0  0  0  0  0  0  0
    4.5923    0.1303    1.5631 H   0  0  0  0  0  0  0  0  0  0  0  0
    4.5036    1.1635   -0.6266 H   0  0  0  0  0  0  0  0  0  0  0  0
    3.1823    1.8112   -2.6314 H   0  0  0  0  0  0  0  0  0  0  0  0
    0.7597    1.2628   -2.6976 H   0  0  0  0  0  0  0  0  0  0  0  0
   -0.7420   -0.5575   -2.8406 H   0  0  0  0  0  0  0  0  0  0  0  0
   -3.1538   -1.1359   -2.7056 H   0  0  0  0  0  0  0  0  0  0  0  0
   -4.3114   -0.9618   -0.5238 H   0  0  0  0  0  0  0  0  0  0  0  0
   -2.3787    0.1804    2.5782 H   0  0  0  0  0  0  0  0  0  0  0  0
   -5.0999   -0.7676    1.5182 H   0  0  0  0  0  0  0  0  0  0  0  0
   -4.6749   -0.2974    3.2289 H   0  0  0  0  0  0  0  0  0  0  0  0
  1  2  2  0  0  0  0
  2  3  1  0  0  0  0
  3  4  4  0  0  0  0
  4  5  4  0  0  0  0
  5  6  4  0  0  0  0
  6  7  4  0  0  0  0
  7  8  1  0  0  0  0
  8  9  4  0  0  0  0
  9 10  4  0  0  0  0
 10 11  4  0  0  0  0
 11 12  4  0  0  0  0
 12 13  1  0  0  0  0
 13 14  2  0  0  0  0
  8 15  4  0  0  0  0
 12 15  4  0  0  0  0
  3 16  4  0  0  0  0
  7 16  4  0  0  0  0
  1 17  1  0  0  0  0
  1 18  1  0  0  0  0
  2 19  1  0  0  0  0
  4 20  1  0  0  0  0
  5 21  1  0  0  0  0
  6 22  1  0  0  0  0
  9 23  1  0  0  0  0
 10 24  1  0  0  0  0
 11 25  1  0  0  0  0
 13 26  1  0  0  0  0
 14 27  1  0  0  0  0
 14 28  1  0  0  0  0
M  END
