 xtb: 6.5.0 (unknown)
          08112218553D

 23  0  0     0  0            999 V2000
    2.8231   -2.6847    0.6245 C   0  0  0  0  0  0  0  0  0  0  0  0
    2.3462   -1.7153   -0.1438 C   0  0  0  0  0  0  0  0  0  0  0  0
    0.9899   -1.1782   -0.0634 C   0  0  0  0  0  0  0  0  0  0  0  0
   -0.0769   -2.0193    0.2543 C   0  0  0  0  0  0  0  0  0  0  0  0
   -1.3801   -1.5670    0.2583 C   0  0  0  0  0  0  0  0  0  0  0  0
   -1.6395   -0.2466   -0.0874 C   0  0  0  0  0  0  0  0  0  0  0  0
   -3.0443    0.2830   -0.0988 C   0  0  0  0  0  0  0  0  0  0  0  0
   -3.9721   -0.6824   -0.1477 F   0  0  0  0  0  0  0  0  0  0  0  0
   -3.3182    1.0137    1.0008 F   0  0  0  0  0  0  0  0  0  0  0  0
   -3.2790    1.0922   -1.1464 F   0  0  0  0  0  0  0  0  0  0  0  0
   -0.5992    0.6119   -0.4028 C   0  0  0  0  0  0  0  0  0  0  0  0
    0.7187    0.1659   -0.3742 C   0  0  0  0  0  0  0  0  0  0  0  0
    1.7657    1.1451   -0.6682 C   0  0  0  0  0  0  0  0  0  0  0  0
    2.9021    1.2889   -0.0064 C   0  0  0  0  0  0  0  0  0  0  0  0
    3.3108    0.5918    1.0436 F   0  0  0  0  0  0  0  0  0  0  0  0
    3.8096    2.2148   -0.2972 F   0  0  0  0  0  0  0  0  0  0  0  0
    3.8288   -3.0489    0.5094 H   0  0  0  0  0  0  0  0  0  0  0  0
    2.2419   -3.1277    1.4153 H   0  0  0  0  0  0  0  0  0  0  0  0
    2.9804   -1.2653   -0.8971 H   0  0  0  0  0  0  0  0  0  0  0  0
    0.1249   -3.0548    0.4791 H   0  0  0  0  0  0  0  0  0  0  0  0
   -2.1929   -2.2321    0.5051 H   0  0  0  0  0  0  0  0  0  0  0  0
   -0.8119    1.6386   -0.6608 H   0  0  0  0  0  0  0  0  0  0  0  0
    1.5714    1.8601   -1.4539 H   0  0  0  0  0  0  0  0  0  0  0  0
M  END
