
  xtb     02032211363D
 xtb: 6.4.1 (23d549d)
 28 28  0     0  0            999 V2000
    0.7465   -3.8982   -0.1386 C   0  0  0  0  0  0  0  0  0  0  0  0
    1.4513   -2.7740   -0.0894 C   0  0  0  0  0  0  0  0  0  0  0  0
    0.9160   -1.4208   -0.0281 C   0  0  0  0  0  0  0  0  0  0  0  0
   -0.4390   -1.1277   -0.0141 C   0  0  0  0  0  0  0  0  0  0  0  0
   -0.9189    0.1784    0.0462 C   0  0  0  0  0  0  0  0  0  0  0  0
   -2.3662    0.4195    0.0373 C   0  0  0  0  0  0  0  0  0  0  0  0
   -2.9032    1.5130    0.0604 O   0  0  0  0  0  0  0  0  0  0  0  0
   -3.0882   -0.7121   -0.0060 O   0  0  0  0  0  0  0  0  0  0  0  0
   -4.4964   -0.5455   -0.0195 C   0  0  0  0  0  0  0  0  0  0  0  0
   -0.0111    1.2650    0.0963 C   0  0  0  0  0  0  0  0  0  0  0  0
   -0.4566    2.5352    0.1447 N   0  0  0  0  0  0  0  0  0  0  0  0
    1.3803    0.9923    0.0944 C   0  0  0  0  0  0  0  0  0  0  0  0
    2.3415    2.0951    0.2078 C   0  0  0  0  0  0  0  0  0  0  0  0
    3.4807    2.1900   -0.4619 C   0  0  0  0  0  0  0  0  0  0  0  0
    1.7930   -0.3262    0.0273 C   0  0  0  0  0  0  0  0  0  0  0  0
    3.1184   -0.5846    0.0520 F   0  0  0  0  0  0  0  0  0  0  0  0
    1.2338   -4.8567   -0.1820 H   0  0  0  0  0  0  0  0  0  0  0  0
   -0.3297   -3.9153   -0.1365 H   0  0  0  0  0  0  0  0  0  0  0  0
    2.5318   -2.8324   -0.0929 H   0  0  0  0  0  0  0  0  0  0  0  0
   -1.1572   -1.9287   -0.0532 H   0  0  0  0  0  0  0  0  0  0  0  0
   -4.9195   -1.5466   -0.0337 H   0  0  0  0  0  0  0  0  0  0  0  0
   -4.8055    0.0141   -0.9051 H   0  0  0  0  0  0  0  0  0  0  0  0
   -4.8245   -0.0023    0.8694 H   0  0  0  0  0  0  0  0  0  0  0  0
   -1.4564    2.6796    0.0982 H   0  0  0  0  0  0  0  0  0  0  0  0
    0.1814    3.3025    0.0465 H   0  0  0  0  0  0  0  0  0  0  0  0
    2.0700    2.8705    0.9155 H   0  0  0  0  0  0  0  0  0  0  0  0
    3.7865    1.4508   -1.1818 H   0  0  0  0  0  0  0  0  0  0  0  0
    4.1519    3.0185   -0.3125 H   0  0  0  0  0  0  0  0  0  0  0  0
  1  2  2  0  0  0  0
  2  3  1  0  0  0  0
  3  4  4  0  0  0  0
  4  5  4  0  0  0  0
  5  6  1  0  0  0  0
  6  7  2  0  0  0  0
  6  8  1  0  0  0  0
  8  9  1  0  0  0  0
  5 10  4  0  0  0  0
 10 11  4  0  0  0  0
 10 12  4  0  0  0  0
 12 13  1  0  0  0  0
 13 14  2  0  0  0  0
  3 15  4  0  0  0  0
 12 15  4  0  0  0  0
 15 16  1  0  0  0  0
  1 17  1  0  0  0  0
  1 18  1  0  0  0  0
  2 19  1  0  0  0  0
  4 20  1  0  0  0  0
  9 21  1  0  0  0  0
  9 22  1  0  0  0  0
  9 23  1  0  0  0  0
 11 24  1  0  0  0  0
 11 25  1  0  0  0  0
 13 26  1  0  0  0  0
 14 27  1  0  0  0  0
 14 28  1  0  0  0  0
M  END
