
 OpenBabel02032211123D

 29 29  0  0  0  0  0  0  0  0999 V2000
    1.0626   -0.0138    0.0277 C   0  0  0  0  0  0  0  0  0  0  0  0
    2.3048    0.4677   -0.0868 C   0  0  0  0  0  0  0  0  0  0  0  0
    3.1265    0.8817    1.0687 C   0  0  0  0  0  0  0  0  0  0  0  0
    2.7812    0.8573    2.4181 C   0  0  0  0  0  0  0  0  0  0  0  0
    3.8029    1.3153    3.2719 C   0  0  0  0  0  0  0  0  0  0  0  0
    3.6228    1.3557    4.7705 C   0  0  0  0  0  0  0  0  0  0  0  0
    2.5255    2.3500    5.1703 C   0  0  0  0  0  0  0  0  0  0  0  0
    2.3562    2.3926    6.6942 C   0  0  0  0  0  0  0  0  0  0  0  0
    1.2971    3.4120    7.1033 C   0  0  0  0  0  0  0  0  0  0  0  0
    4.9614    1.7053    2.5800 C   0  0  0  0  0  0  0  0  0  0  0  0
    6.2156    2.2424    3.1643 C   0  0  0  0  0  0  0  0  0  0  0  0
    7.2646    2.5972    2.4142 C   0  0  0  0  0  0  0  0  0  0  0  0
    4.6895    1.4735    0.9312 S   0  0  0  0  0  0  0  0  0  0  0  0
    0.5143   -0.3015   -0.8637 H   0  0  0  0  0  0  0  0  0  0  0  0
    0.5765   -0.1306    0.9889 H   0  0  0  0  0  0  0  0  0  0  0  0
    2.7349    0.5578   -1.0798 H   0  0  0  0  0  0  0  0  0  0  0  0
    1.8245    0.5132    2.7866 H   0  0  0  0  0  0  0  0  0  0  0  0
    4.5579    1.6579    5.2775 H   0  0  0  0  0  0  0  0  0  0  0  0
    3.3660    0.3347    5.1268 H   0  0  0  0  0  0  0  0  0  0  0  0
    1.5594    2.0597    4.7033 H   0  0  0  0  0  0  0  0  0  0  0  0
    2.8094    3.3624    4.8058 H   0  0  0  0  0  0  0  0  0  0  0  0
    3.3209    2.6743    7.1704 H   0  0  0  0  0  0  0  0  0  0  0  0
    2.0554    1.3882    7.0644 H   0  0  0  0  0  0  0  0  0  0  0  0
    1.5915    4.4285    6.7653 H   0  0  0  0  0  0  0  0  0  0  0  0
    1.1976    3.4210    8.2091 H   0  0  0  0  0  0  0  0  0  0  0  0
    0.3142    3.1489    6.6580 H   0  0  0  0  0  0  0  0  0  0  0  0
    6.3093    2.3661    4.2355 H   0  0  0  0  0  0  0  0  0  0  0  0
    7.2529    2.5085    1.3333 H   0  0  0  0  0  0  0  0  0  0  0  0
    8.1587    2.9883    2.8892 H   0  0  0  0  0  0  0  0  0  0  0  0
  1  2  2  0  0  0  0
  1 14  1  0  0  0  0
  1 15  1  0  0  0  0
  2  3  1  0  0  0  0
  2 16  1  0  0  0  0
  3  4  2  0  0  0  0
  3 13  1  0  0  0  0
  4  5  1  0  0  0  0
  4 17  1  0  0  0  0
  5  6  1  0  0  0  0
  5 10  2  0  0  0  0
  6  7  1  0  0  0  0
  6 18  1  0  0  0  0
  6 19  1  0  0  0  0
  7  8  1  0  0  0  0
  7 20  1  0  0  0  0
  7 21  1  0  0  0  0
  8  9  1  0  0  0  0
  8 22  1  0  0  0  0
  8 23  1  0  0  0  0
  9 24  1  0  0  0  0
  9 25  1  0  0  0  0
  9 26  1  0  0  0  0
 10 11  1  0  0  0  0
 10 13  1  0  0  0  0
 11 12  2  0  0  0  0
 11 27  1  0  0  0  0
 12 28  1  0  0  0  0
 12 29  1  0  0  0  0
M  END
