
  xtb     02032211123D
 xtb: 6.4.1 (23d549d)
 29 29  0     0  0            999 V2000
    2.5709    0.6780   -1.1369 c   0  0  0  0  0  0  0  0  0  0  0  0
    2.2987    0.7481    0.1633 c   0  0  0  0  0  0  0  0  0  0  0  0
    3.2720    0.9431    1.2014 c   0  0  0  0  0  0  0  0  0  0  0  0
    3.0400    1.0080    2.5506 c   0  0  0  0  0  0  0  0  0  0  0  0
    4.1977    1.1902    3.3315 c   0  0  0  0  0  0  0  0  0  0  0  0
    4.1310    1.3035    4.8230 c   0  0  0  0  0  0  0  0  0  0  0  0
    3.7349    2.7172    5.2713 c   0  0  0  0  0  0  0  0  0  0  0  0
    4.8113    3.7556    4.9689 c   0  0  0  0  0  0  0  0  0  0  0  0
    4.4013    5.1444    5.4430 c   0  0  0  0  0  0  0  0  0  0  0  0
    5.3393    1.2739    2.5629 c   0  0  0  0  0  0  0  0  0  0  0  0
    6.6962    1.4556    2.9989 c   0  0  0  0  0  0  0  0  0  0  0  0
    7.7469    1.5745    2.1913 c   0  0  0  0  0  0  0  0  0  0  0  0
    4.9675    1.1183    0.8670 s   0  0  0  0  0  0  0  0  0  0  0  0
    1.7984    0.5266   -1.8698 h   0  0  0  0  0  0  0  0  0  0  0  0
    3.5799    0.7699   -1.5037 h   0  0  0  0  0  0  0  0  0  0  0  0
    1.2788    0.6526    0.5152 h   0  0  0  0  0  0  0  0  0  0  0  0
    2.0545    0.9186    2.9752 h   0  0  0  0  0  0  0  0  0  0  0  0
    5.0882    1.0364    5.2727 h   0  0  0  0  0  0  0  0  0  0  0  0
    3.3804    0.5981    5.1886 h   0  0  0  0  0  0  0  0  0  0  0  0
    3.5441    2.7025    6.3471 h   0  0  0  0  0  0  0  0  0  0  0  0
    2.8068    3.0042    4.7716 h   0  0  0  0  0  0  0  0  0  0  0  0
    5.0021    3.7798    3.8940 h   0  0  0  0  0  0  0  0  0  0  0  0
    5.7414    3.4672    5.4645 h   0  0  0  0  0  0  0  0  0  0  0  0
    3.4859    5.4622    4.9487 h   0  0  0  0  0  0  0  0  0  0  0  0
    5.1806    5.8695    5.2208 h   0  0  0  0  0  0  0  0  0  0  0  0
    4.2279    5.1455    6.5173 h   0  0  0  0  0  0  0  0  0  0  0  0
    6.8358    1.4974    4.0707 h   0  0  0  0  0  0  0  0  0  0  0  0
    7.6395    1.5433    1.1196 h   0  0  0  0  0  0  0  0  0  0  0  0
    8.7426    1.7077    2.5756 h   0  0  0  0  0  0  0  0  0  0  0  0
  1  2  2  0  0  0  0
  2  3  1  0  0  0  0
  3  4  2  0  0  0  0
  4  5  4  0  0  0  0
  5  6  1  0  0  0  0
  6  7  1  0  0  0  0
  7  8  1  0  0  0  0
  8  9  1  0  0  0  0
  5 10  4  0  0  0  0
 10 11  1  0  0  0  0
 11 12  2  0  0  0  0
  3 13  1  0  0  0  0
 10 13  1  0  0  0  0
  1 14  1  0  0  0  0
  1 15  1  0  0  0  0
  2 16  1  0  0  0  0
  4 17  1  0  0  0  0
  6 18  1  0  0  0  0
  6 19  1  0  0  0  0
  7 20  1  0  0  0  0
  7 21  1  0  0  0  0
  8 22  1  0  0  0  0
  8 23  1  0  0  0  0
  9 24  1  0  0  0  0
  9 25  1  0  0  0  0
  9 26  1  0  0  0  0
 11 27  1  0  0  0  0
 12 28  1  0  0  0  0
 12 29  1  0  0  0  0
M  END
