21

C         -2.71620        0.24690        0.09500
C         -1.27480       -0.15290        0.00240
S         -0.03290        0.95880       -0.03580
C          1.22300       -0.14550       -0.10710
C          2.64370        0.31740       -0.20440
C          0.69520       -1.46020       -0.11630
C          1.52360       -2.70650       -0.30550
O          2.54239       -2.64975       -0.97201
O          1.25934       -3.88641        0.29794
C         -0.74120       -1.45330       -0.02310
C         -1.63770       -2.65420        0.07140
O         -2.68980       -2.57955        0.68529
O         -1.26703       -3.86955       -0.38772
H         -2.81010        1.35280        0.12530
H         -3.16360       -0.17130        1.02070
H         -3.27090       -0.12260       -0.79200
H          2.68460        1.42650       -0.24320
H          3.11190       -0.07860       -1.12960
H          3.21130        0.01290        0.69720
H          0.47302       -4.09076        0.80707
H         -0.36587       -4.07243       -0.67008
21

C         -2.71620        0.24690        0.09500
C         -1.27480       -0.15290        0.00240
S         -0.03290        0.95880       -0.03580
C          1.22300       -0.14550       -0.10710
C          2.64370        0.31740       -0.20440
C          0.69520       -1.46020       -0.11630
C          1.52360       -2.70650       -0.30550
O          2.72781       -2.60381       -0.46275
O          1.02832       -3.96104       -0.22198
C         -0.74120       -1.45330       -0.02310
C         -1.63770       -2.65420        0.07140
O         -2.77847       -2.59547       -0.35820
O         -1.27784       -3.77290        0.73794
H         -2.81010        1.35280        0.12530
H         -3.16360       -0.17130        1.02070
H         -3.27090       -0.12260       -0.79200
H          2.68460        1.42650       -0.24320
H          3.11190       -0.07860       -1.12960
H          3.21130        0.01290        0.69720
H          0.10067       -4.19281       -0.15101
H         -0.49757       -3.81865        1.30544
21

C         -2.71620        0.24690        0.09500
C         -1.27480       -0.15290        0.00240
S         -0.03290        0.95880       -0.03580
C          1.22300       -0.14550       -0.10710
C          2.64370        0.31740       -0.20440
C          0.69520       -1.46020       -0.11630
C          1.52360       -2.70650       -0.30550
O          1.16660       -3.74551        0.22215
O          2.60809       -2.77637       -1.10872
C         -0.74120       -1.45330       -0.02310
C         -1.63770       -2.65420        0.07140
O         -1.31664       -3.69611       -0.47696
O         -2.86469       -2.59646        0.63392
H         -2.81010        1.35280        0.12530
H         -3.16360       -0.17130        1.02070
H         -3.27090       -0.12260       -0.79200
H          2.68460        1.42650       -0.24320
H          3.11190       -0.07860       -1.12960
H          3.21130        0.01290        0.69720
H          3.02985       -2.03417       -1.54521
H         -3.29295       -1.76554        0.87709
21

C         -2.71620        0.24690        0.09500
C         -1.27480       -0.15290        0.00240
S         -0.03290        0.95880       -0.03580
C          1.22300       -0.14550       -0.10710
C          2.64370        0.31740       -0.20440
C          0.69520       -1.46020       -0.11630
C          1.52360       -2.70650       -0.30550
O          1.16660       -3.74551        0.22215
O          2.60809       -2.77637       -1.10872
C         -0.74120       -1.45330       -0.02310
C         -1.63770       -2.65420        0.07140
O         -1.15454       -3.77482        0.06053
O         -2.98453       -2.55407        0.03574
H         -2.81010        1.35280        0.12530
H         -3.16360       -0.17130        1.02070
H         -3.27090       -0.12260       -0.79200
H          2.68460        1.42650       -0.24320
H          3.11190       -0.07860       -1.12960
H          3.21130        0.01290        0.69720
H          3.02985       -2.03417       -1.54521
H         -3.44503       -1.73615       -0.19214
21

C         -2.71620        0.24690        0.09500
C         -1.27480       -0.15290        0.00240
S         -0.03290        0.95880       -0.03580
C          1.22300       -0.14550       -0.10710
C          2.64370        0.31740       -0.20440
C          0.69520       -1.46020       -0.11630
C          1.52360       -2.70650       -0.30550
O          1.16660       -3.74551        0.22215
O          2.60809       -2.77637       -1.10872
C         -0.74120       -1.45330       -0.02310
C         -1.63770       -2.65420        0.07140
O         -1.22606       -3.67985        0.58904
O         -2.85364       -2.69520       -0.51602
H         -2.81010        1.35280        0.12530
H         -3.16360       -0.17130        1.02070
H         -3.27090       -0.12260       -0.79200
H          2.68460        1.42650       -0.24320
H          3.11190       -0.07860       -1.12960
H          3.21130        0.01290        0.69720
H          3.02985       -2.03417       -1.54521
H         -3.15841       -2.02479       -1.14103
21

C         -2.71620        0.24690        0.09500
C         -1.27480       -0.15290        0.00240
S         -0.03290        0.95880       -0.03580
C          1.22300       -0.14550       -0.10710
C          2.64370        0.31740       -0.20440
C          0.69520       -1.46020       -0.11630
C          1.52360       -2.70650       -0.30550
O          0.97256       -3.79357       -0.31078
O          2.84985       -2.69827       -0.56464
C         -0.74120       -1.45330       -0.02310
C         -1.63770       -2.65420        0.07140
O         -1.31664       -3.69611       -0.47696
O         -2.86469       -2.59646        0.63392
H         -2.81010        1.35280        0.12530
H         -3.16360       -0.17130        1.02070
H         -3.27090       -0.12260       -0.79200
H          2.68460        1.42650       -0.24320
H          3.11190       -0.07860       -1.12960
H          3.21130        0.01290        0.69720
H          3.41951       -1.92738       -0.54260
H         -3.29295       -1.76554        0.87709
21

C         -2.71620        0.24690        0.09500
C         -1.27480       -0.15290        0.00240
S         -0.03290        0.95880       -0.03580
C          1.22300       -0.14550       -0.10710
C          2.64370        0.31740       -0.20440
C          0.69520       -1.46020       -0.11630
C          1.52360       -2.70650       -0.30550
O          1.02228       -3.68013       -0.84040
O          2.83686       -2.79280        0.00117
C         -0.74120       -1.45330       -0.02310
C         -1.63770       -2.65420        0.07140
O         -1.31664       -3.69611       -0.47696
O         -2.86469       -2.59646        0.63392
H         -2.81010        1.35280        0.12530
H         -3.16360       -0.17130        1.02070
H         -3.27090       -0.12260       -0.79200
H          2.68460        1.42650       -0.24320
H          3.11190       -0.07860       -1.12960
H          3.21130        0.01290        0.69720
H          3.34727       -2.12880        0.46794
H         -3.29295       -1.76554        0.87709
21

C         -2.71620        0.24690        0.09500
C         -1.27480       -0.15290        0.00240
S         -0.03290        0.95880       -0.03580
C          1.22300       -0.14550       -0.10710
C          2.64370        0.31740       -0.20440
C          0.69520       -1.46020       -0.11630
C          1.52360       -2.70650       -0.30550
O          0.97256       -3.79357       -0.31078
O          2.84985       -2.69827       -0.56464
C         -0.74120       -1.45330       -0.02310
C         -1.63770       -2.65420        0.07140
O         -1.15454       -3.77482        0.06053
O         -2.98453       -2.55407        0.03574
H         -2.81010        1.35280        0.12530
H         -3.16360       -0.17130        1.02070
H         -3.27090       -0.12260       -0.79200
H          2.68460        1.42650       -0.24320
H          3.11190       -0.07860       -1.12960
H          3.21130        0.01290        0.69720
H          3.41951       -1.92738       -0.54260
H         -3.44503       -1.73615       -0.19214
21

C         -2.71620        0.24690        0.09500
C         -1.27480       -0.15290        0.00240
S         -0.03290        0.95880       -0.03580
C          1.22300       -0.14550       -0.10710
C          2.64370        0.31740       -0.20440
C          0.69520       -1.46020       -0.11630
C          1.52360       -2.70650       -0.30550
O          1.02228       -3.68013       -0.84040
O          2.83686       -2.79280        0.00117
C         -0.74120       -1.45330       -0.02310
C         -1.63770       -2.65420        0.07140
O         -1.15454       -3.77482        0.06053
O         -2.98453       -2.55407        0.03574
H         -2.81010        1.35280        0.12530
H         -3.16360       -0.17130        1.02070
H         -3.27090       -0.12260       -0.79200
H          2.68460        1.42650       -0.24320
H          3.11190       -0.07860       -1.12960
H          3.21130        0.01290        0.69720
H          3.34727       -2.12880        0.46794
H         -3.44503       -1.73615       -0.19214
21

C         -2.71620        0.24690        0.09500
C         -1.27480       -0.15290        0.00240
S         -0.03290        0.95880       -0.03580
C          1.22300       -0.14550       -0.10710
C          2.64370        0.31740       -0.20440
C          0.69520       -1.46020       -0.11630
C          1.52360       -2.70650       -0.30550
O          1.02228       -3.68013       -0.84040
O          2.83686       -2.79280        0.00117
C         -0.74120       -1.45330       -0.02310
C         -1.63770       -2.65420        0.07140
O         -1.22606       -3.67985        0.58904
O         -2.85364       -2.69520       -0.51602
H         -2.81010        1.35280        0.12530
H         -3.16360       -0.17130        1.02070
H         -3.27090       -0.12260       -0.79200
H          2.68460        1.42650       -0.24320
H          3.11190       -0.07860       -1.12960
H          3.21130        0.01290        0.69720
H          3.34727       -2.12880        0.46794
H         -3.15841       -2.02479       -1.14103
