
  xtb     02032211193D
 xtb: 6.4.1 (23d549d)
 22 22  0     0  0            999 V2000
    3.2326    0.7999   -0.9538 c   0  0  0  0  0  0  0  0  0  0  0  0
    2.5024    0.0722   -0.1196 c   0  0  0  0  0  0  0  0  0  0  0  0
    3.0407   -0.7463    0.9679 c   0  0  0  0  0  0  0  0  0  0  0  0
    4.1571   -0.3187    1.6769 c   0  0  0  0  0  0  0  0  0  0  0  0
    4.6510   -1.0505    2.7406 c   0  0  0  0  0  0  0  0  0  0  0  0
    4.0286   -2.2280    3.1049 c   0  0  0  0  0  0  0  0  0  0  0  0
    2.9155   -2.7002    2.4146 c   0  0  0  0  0  0  0  0  0  0  0  0
    2.3110   -3.9755    2.7993 c   0  0  0  0  0  0  0  0  0  0  0  0
    2.2229   -4.4299    4.0417 c   0  0  0  0  0  0  0  0  0  0  0  0
    2.4130   -1.9542    1.3316 c   0  0  0  0  0  0  0  0  0  0  0  0
    1.2714   -2.3576    0.6689 n   0  0  0  0  0  0  0  0  0  0  0  0
    2.7815    1.4053   -1.7217 h   0  0  0  0  0  0  0  0  0  0  0  0
    4.3088    0.8101   -0.9099 h   0  0  0  0  0  0  0  0  0  0  0  0
    1.4230    0.0796   -0.2157 h   0  0  0  0  0  0  0  0  0  0  0  0
    4.6238    0.6151    1.4015 h   0  0  0  0  0  0  0  0  0  0  0  0
    5.5167   -0.7026    3.2839 h   0  0  0  0  0  0  0  0  0  0  0  0
    4.4213   -2.8147    3.9217 h   0  0  0  0  0  0  0  0  0  0  0  0
    1.9303   -4.5941    1.9930 h   0  0  0  0  0  0  0  0  0  0  0  0
    2.5636   -3.8530    4.8844 h   0  0  0  0  0  0  0  0  0  0  0  0
    1.7948   -5.3925    4.2639 h   0  0  0  0  0  0  0  0  0  0  0  0
    0.9739   -3.3064    0.8232 h   0  0  0  0  0  0  0  0  0  0  0  0
    1.1651   -2.0358   -0.2784 h   0  0  0  0  0  0  0  0  0  0  0  0
  1  2  2  0  0  0  0
  2  3  1  0  0  0  0
  3  4  4  0  0  0  0
  4  5  4  0  0  0  0
  5  6  4  0  0  0  0
  6  7  4  0  0  0  0
  7  8  1  0  0  0  0
  8  9  2  0  0  0  0
  3 10  4  0  0  0  0
  7 10  4  0  0  0  0
 10 11  1  0  0  0  0
  1 12  1  0  0  0  0
  1 13  1  0  0  0  0
  2 14  1  0  0  0  0
  4 15  1  0  0  0  0
  5 16  1  0  0  0  0
  6 17  1  0  0  0  0
  8 18  1  0  0  0  0
  9 19  1  0  0  0  0
  9 20  1  0  0  0  0
 11 21  1  0  0  0  0
 11 22  1  0  0  0  0
M  END
