18

C          2.90590        0.00590        0.00480
C          1.40570       -0.00890        0.00260
C          0.69860       -1.22170        0.00130
C         -0.69960       -1.22250       -0.00020
C         -1.40820       -0.01060       -0.00080
C         -2.90830        0.00230       -0.00230
C         -0.70100        1.20080        0.00050
C          0.69730        1.20170        0.00230
H          3.32340       -1.02360        0.00350
H          3.27250        0.53220        0.91110
H          3.27540        0.53570       -0.89810
H          1.22730       -2.16690        0.00150
H         -1.22700       -2.16830       -0.00120
H         -3.32460       -1.02770       -0.00240
H         -3.27610        0.52980       -0.90730
H         -3.27780        0.53030        0.90190
H         -1.23350        2.14400       -0.00000
H          1.22850        2.14560        0.00320
