
  xtb     02032211363D
 xtb: 6.4.1 (23d549d)
 25 26  0     0  0            999 V2000
    3.9221    0.3053   -0.5205 C   0  0  0  0  0  0  0  0  0  0  0  0
    3.0684   -0.4819    0.1228 C   0  0  0  0  0  0  0  0  0  0  0  0
    1.6066   -0.3809    0.1168 C   0  0  0  0  0  0  0  0  0  0  0  0
    0.8966   -1.5702    0.0596 C   0  0  0  0  0  0  0  0  0  0  0  0
   -0.4879   -1.5266    0.0039 C   0  0  0  0  0  0  0  0  0  0  0  0
   -1.4127   -2.5425   -0.0472 N   0  0  0  0  0  0  0  0  0  0  0  0
   -2.5650   -1.9567   -0.0498 C   0  0  0  0  0  0  0  0  0  0  0  0
   -2.4864   -0.5925   -0.0128 N   0  0  0  0  0  0  0  0  0  0  0  0
   -1.1523   -0.2810    0.0223 C   0  0  0  0  0  0  0  0  0  0  0  0
   -0.4730    0.9328    0.1301 C   0  0  0  0  0  0  0  0  0  0  0  0
   -1.1968    2.1981    0.2251 C   0  0  0  0  0  0  0  0  0  0  0  0
   -2.2897    2.5061   -0.4622 C   0  0  0  0  0  0  0  0  0  0  0  0
    0.9295    0.8671    0.1794 C   0  0  0  0  0  0  0  0  0  0  0  0
    1.6633    2.0349    0.2370 N   0  0  0  0  0  0  0  0  0  0  0  0
    4.9840    0.1268   -0.4811 H   0  0  0  0  0  0  0  0  0  0  0  0
    3.5981    1.1218   -1.1432 H   0  0  0  0  0  0  0  0  0  0  0  0
    3.4525   -1.3339    0.6724 H   0  0  0  0  0  0  0  0  0  0  0  0
    1.4129   -2.5167    0.0373 H   0  0  0  0  0  0  0  0  0  0  0  0
   -3.5058   -2.4720   -0.0832 H   0  0  0  0  0  0  0  0  0  0  0  0
   -3.2494    0.0605    0.0408 H   0  0  0  0  0  0  0  0  0  0  0  0
   -0.8066    2.9245    0.9315 H   0  0  0  0  0  0  0  0  0  0  0  0
   -2.6953    1.8509   -1.2152 H   0  0  0  0  0  0  0  0  0  0  0  0
   -2.7962    3.4469   -0.3280 H   0  0  0  0  0  0  0  0  0  0  0  0
    1.1673    2.8515    0.5558 H   0  0  0  0  0  0  0  0  0  0  0  0
    2.5958    1.9365    0.6086 H   0  0  0  0  0  0  0  0  0  0  0  0
  1  2  2  0  0  0  0
  2  3  1  0  0  0  0
  3  4  4  0  0  0  0
  4  5  4  0  0  0  0
  5  6  1  0  0  0  0
  6  7  2  0  0  0  0
  7  8  4  0  0  0  0
  5  9  4  0  0  0  0
  8  9  1  0  0  0  0
  9 10  4  0  0  0  0
 10 11  1  0  0  0  0
 11 12  2  0  0  0  0
  3 13  4  0  0  0  0
 10 13  4  0  0  0  0
 13 14  1  0  0  0  0
  1 15  1  0  0  0  0
  1 16  1  0  0  0  0
  2 17  1  0  0  0  0
  4 18  1  0  0  0  0
  7 19  1  0  0  0  0
  8 20  1  0  0  0  0
 11 21  1  0  0  0  0
 12 22  1  0  0  0  0
 12 23  1  0  0  0  0
 14 24  1  0  0  0  0
 14 25  1  0  0  0  0
M  END
