
 OpenBabel02012213453D

 12 11  0  0  0  0  0  0  0  0999 V2000
    1.0698    0.0510    0.0782 C   0  0  0  0  0  0  0  0  0  0  0  0
    2.5674    0.0477    0.0759 C   0  0  0  0  0  0  0  0  0  0  0  0
    3.2597    0.9785    0.7471 C   0  0  0  0  0  0  0  0  0  0  0  0
    4.7594    0.9947    0.7588 C   0  0  0  0  0  0  0  0  0  0  0  0
    0.6922   -0.7956   -0.5325 H   0  0  0  0  0  0  0  0  0  0  0  0
    0.6922    1.0020   -0.3534 H   0  0  0  0  0  0  0  0  0  0  0  0
    0.6921   -0.0581    1.1167 H   0  0  0  0  0  0  0  0  0  0  0  0
    3.0865   -0.7265   -0.4825 H   0  0  0  0  0  0  0  0  0  0  0  0
    2.7326    1.7493    1.3029 H   0  0  0  0  0  0  0  0  0  0  0  0
    5.1877    0.1630    0.1591 H   0  0  0  0  0  0  0  0  0  0  0  0
    5.1184    0.9000    1.8046 H   0  0  0  0  0  0  0  0  0  0  0  0
    5.1184    1.9571    0.3386 H   0  0  0  0  0  0  0  0  0  0  0  0
  1  2  1  0  0  0  0
  1  5  1  0  0  0  0
  1  6  1  0  0  0  0
  1  7  1  0  0  0  0
  2  3  2  0  0  0  0
  2  8  1  0  0  0  0
  3  4  1  0  0  0  0
  3  9  1  0  0  0  0
  4 10  1  0  0  0  0
  4 11  1  0  0  0  0
  4 12  1  0  0  0  0
M  END
