
 OpenBabel02012214103D

 20 20  0  0  0  0  0  0  0  0999 V2000
    2.6093    1.0582   -0.0755 C   0  0  0  0  0  0  0  0  0  0  0  0
    1.2482    0.4305   -0.0005 C   0  0  0  0  0  0  0  0  0  0  0  0
    1.1715   -0.9585    0.0593 C   0  0  0  0  0  0  0  0  0  0  0  0
    0.0237   -1.6619    0.0901 N   0  0  0  0  0  0  0  0  0  0  0  0
   -1.1243   -0.9580    0.0534 C   0  0  0  0  0  0  0  0  0  0  0  0
   -1.1934    0.4301    0.0125 C   0  0  0  0  0  0  0  0  0  0  0  0
   -2.5440    1.0840   -0.0175 C   0  0  0  0  0  0  0  0  0  0  0  0
    0.0269    1.1392   -0.0064 C   0  0  0  0  0  0  0  0  0  0  0  0
   -0.0151    2.6285   -0.1066 C   0  0  0  0  0  0  0  0  0  0  0  0
   -0.7856    3.2303   -0.8372 O   0  0  0  0  0  0  0  0  0  0  0  0
    0.8376    3.2648    0.7213 O   0  0  0  0  0  0  0  0  0  0  0  0
    3.3782    0.3088   -0.2964 H   0  0  0  0  0  0  0  0  0  0  0  0
    2.8815    1.5143    0.8809 H   0  0  0  0  0  0  0  0  0  0  0  0
    2.6520    1.8047   -0.8731 H   0  0  0  0  0  0  0  0  0  0  0  0
    2.0673   -1.5757    0.0689 H   0  0  0  0  0  0  0  0  0  0  0  0
   -2.0235   -1.5712    0.0561 H   0  0  0  0  0  0  0  0  0  0  0  0
   -3.3468    0.3407    0.0656 H   0  0  0  0  0  0  0  0  0  0  0  0
   -2.7027    1.6141   -0.9611 H   0  0  0  0  0  0  0  0  0  0  0  0
   -2.6560    1.7720    0.8255 H   0  0  0  0  0  0  0  0  0  0  0  0
    1.2695    2.6974    1.3840 H   0  0  0  0  0  0  0  0  0  0  0  0
  1  2  1  0  0  0  0
  1 12  1  0  0  0  0
  1 13  1  0  0  0  0
  1 14  1  0  0  0  0
  2  3  1  0  0  0  0
  2  8  2  0  0  0  0
  3  4  2  0  0  0  0
  3 15  1  0  0  0  0
  4  5  1  0  0  0  0
  5  6  2  0  0  0  0
  5 16  1  0  0  0  0
  6  7  1  0  0  0  0
  6  8  1  0  0  0  0
  7 17  1  0  0  0  0
  7 18  1  0  0  0  0
  7 19  1  0  0  0  0
  8  9  1  0  0  0  0
  9 10  2  0  0  0  0
  9 11  1  0  0  0  0
 11 20  1  0  0  0  0
M  END
