
  xtb     02032211343D
 xtb: 6.4.1 (23d549d)
 24 24  0     0  0            999 V2000
    2.6963   -2.6036   -0.0903 C   0  0  0  0  0  0  0  0  0  0  0  0
    2.7629   -1.2861    0.0556 C   0  0  0  0  0  0  0  0  0  0  0  0
    1.6429   -0.3499    0.0371 C   0  0  0  0  0  0  0  0  0  0  0  0
    0.3184   -0.7728    0.0387 C   0  0  0  0  0  0  0  0  0  0  0  0
   -0.7229    0.1534    0.0183 C   0  0  0  0  0  0  0  0  0  0  0  0
   -2.1282   -0.2269    0.0194 C   0  0  0  0  0  0  0  0  0  0  0  0
   -2.6558   -1.4413   -0.0007 C   0  0  0  0  0  0  0  0  0  0  0  0
   -2.0270   -2.6108   -0.0270 F   0  0  0  0  0  0  0  0  0  0  0  0
   -3.9700   -1.6636    0.0009 F   0  0  0  0  0  0  0  0  0  0  0  0
   -0.4228    1.5121   -0.0019 C   0  0  0  0  0  0  0  0  0  0  0  0
    0.8991    1.9510   -0.0007 C   0  0  0  0  0  0  0  0  0  0  0  0
    1.0707    3.3013   -0.0203 O   0  0  0  0  0  0  0  0  0  0  0  0
    2.3808    3.8144   -0.0223 C   0  0  0  0  0  0  0  0  0  0  0  0
    1.9264    1.0181    0.0219 C   0  0  0  0  0  0  0  0  0  0  0  0
    3.5835   -3.2127   -0.0663 H   0  0  0  0  0  0  0  0  0  0  0  0
    1.7693   -3.1283   -0.2440 H   0  0  0  0  0  0  0  0  0  0  0  0
    3.7334   -0.8238    0.1913 H   0  0  0  0  0  0  0  0  0  0  0  0
    0.1021   -1.8257    0.0662 H   0  0  0  0  0  0  0  0  0  0  0  0
   -2.8440    0.5821    0.0345 H   0  0  0  0  0  0  0  0  0  0  0  0
   -1.2058    2.2535   -0.0174 H   0  0  0  0  0  0  0  0  0  0  0  0
    2.2723    4.8975   -0.0432 H   0  0  0  0  0  0  0  0  0  0  0  0
    2.9385    3.4905   -0.9070 H   0  0  0  0  0  0  0  0  0  0  0  0
    2.9281    3.5242    0.8805 H   0  0  0  0  0  0  0  0  0  0  0  0
    2.9588    1.3319    0.0238 H   0  0  0  0  0  0  0  0  0  0  0  0
  1  2  2  0  0  0  0
  2  3  1  0  0  0  0
  3  4  4  0  0  0  0
  4  5  4  0  0  0  0
  5  6  1  0  0  0  0
  6  7  2  0  0  0  0
  7  8  1  0  0  0  0
  7  9  1  0  0  0  0
  5 10  4  0  0  0  0
 10 11  4  0  0  0  0
 11 12  1  0  0  0  0
 12 13  1  0  0  0  0
  3 14  4  0  0  0  0
 11 14  4  0  0  0  0
  1 15  1  0  0  0  0
  1 16  1  0  0  0  0
  2 17  1  0  0  0  0
  4 18  1  0  0  0  0
  6 19  1  0  0  0  0
 10 20  1  0  0  0  0
 13 21  1  0  0  0  0
 13 22  1  0  0  0  0
 13 23  1  0  0  0  0
 14 24  1  0  0  0  0
M  END
