
  xtb     02032211353D
 xtb: 6.4.1 (23d549d)
 31 33  0     0  0            999 V2000
   -7.2806   -1.0830   -0.5064 C   0  0  0  0  0  0  0  0  0  0  0  0
   -6.3700   -0.2401   -0.0233 C   0  0  0  0  0  0  0  0  0  0  0  0
   -4.9468   -0.3958   -0.1463 C   0  0  0  0  0  0  0  0  0  0  0  0
   -4.2122   -1.3863   -0.7532 C   0  0  0  0  0  0  0  0  0  0  0  0
   -2.8308   -1.1928   -0.6657 C   0  0  0  0  0  0  0  0  0  0  0  0
   -2.4800   -0.0471    0.0115 C   0  0  0  0  0  0  0  0  0  0  0  0
   -1.1762    0.4512    0.2827 C   0  0  0  0  0  0  0  0  0  0  0  0
   -0.8240    1.5993    0.9548 C   0  0  0  0  0  0  0  0  0  0  0  0
    0.5561    1.7917    1.0434 C   0  0  0  0  0  0  0  0  0  0  0  0
    1.2889    0.7929    0.4403 C   0  0  0  0  0  0  0  0  0  0  0  0
    2.7054    0.6778    0.3474 C   0  0  0  0  0  0  0  0  0  0  0  0
    3.6595    1.5447    0.8329 C   0  0  0  0  0  0  0  0  0  0  0  0
    4.9673    1.1279    0.5682 C   0  0  0  0  0  0  0  0  0  0  0  0
    5.0422   -0.0591   -0.1208 C   0  0  0  0  0  0  0  0  0  0  0  0
    6.2321   -0.7445   -0.5380 C   0  0  0  0  0  0  0  0  0  0  0  0
    6.2566   -1.8946   -1.2070 C   0  0  0  0  0  0  0  0  0  0  0  0
    3.4500   -0.6761   -0.4503 S   0  0  0  0  0  0  0  0  0  0  0  0
    0.2389   -0.4105   -0.2517 S   0  0  0  0  0  0  0  0  0  0  0  0
   -3.8966    0.8059    0.5495 S   0  0  0  0  0  0  0  0  0  0  0  0
   -8.3328   -0.9018   -0.3768 H   0  0  0  0  0  0  0  0  0  0  0  0
   -7.0091   -1.9746   -1.0442 H   0  0  0  0  0  0  0  0  0  0  0  0
   -6.6880    0.6458    0.5113 H   0  0  0  0  0  0  0  0  0  0  0  0
   -4.6589   -2.2293   -1.2480 H   0  0  0  0  0  0  0  0  0  0  0  0
   -2.0984   -1.8628   -1.0810 H   0  0  0  0  0  0  0  0  0  0  0  0
   -1.5543    2.2736    1.3665 H   0  0  0  0  0  0  0  0  0  0  0  0
    1.0073    2.6348    1.5338 H   0  0  0  0  0  0  0  0  0  0  0  0
    3.4177    2.4491    1.3607 H   0  0  0  0  0  0  0  0  0  0  0  0
    5.8397    1.6794    0.8723 H   0  0  0  0  0  0  0  0  0  0  0  0
    7.1557   -0.2496   -0.2646 H   0  0  0  0  0  0  0  0  0  0  0  0
    5.3466   -2.3998   -1.4864 H   0  0  0  0  0  0  0  0  0  0  0  0
    7.1811   -2.3631   -1.4938 H   0  0  0  0  0  0  0  0  0  0  0  0
  1  2  2  0  0  0  0
  2  3  1  0  0  0  0
  3  4  4  0  0  0  0
  4  5  4  0  0  0  0
  5  6  4  0  0  0  0
  6  7  1  0  0  0  0
  7  8  4  0  0  0  0
  8  9  4  0  0  0  0
  9 10  4  0  0  0  0
 10 11  1  0  0  0  0
 11 12  4  0  0  0  0
 12 13  4  0  0  0  0
 13 14  4  0  0  0  0
 14 15  1  0  0  0  0
 15 16  2  0  0  0  0
 11 17  1  0  0  0  0
 14 17  1  0  0  0  0
  7 18  1  0  0  0  0
 10 18  1  0  0  0  0
  3 19  1  0  0  0  0
  6 19  1  0  0  0  0
  1 20  1  0  0  0  0
  1 21  1  0  0  0  0
  2 22  1  0  0  0  0
  4 23  1  0  0  0  0
  5 24  1  0  0  0  0
  8 25  1  0  0  0  0
  9 26  1  0  0  0  0
 12 27  1  0  0  0  0
 13 28  1  0  0  0  0
 15 29  1  0  0  0  0
 16 30  1  0  0  0  0
 16 31  1  0  0  0  0
M  END
