
  xtb     02032211343D
 xtb: 6.4.1 (23d549d)
 46 50  0     0  0            999 V2000
   -3.1584   -6.2023    0.1275 F   0  0  0  0  0  0  0  0  0  0  0  0
   -3.1668   -4.8673    0.1189 C   0  0  0  0  0  0  0  0  0  0  0  0
   -4.4285   -4.4496    0.1686 F   0  0  0  0  0  0  0  0  0  0  0  0
   -2.0606   -4.1397    0.0697 C   0  0  0  0  0  0  0  0  0  0  0  0
   -1.9164   -2.6943    0.0557 C   0  0  0  0  0  0  0  0  0  0  0  0
   -0.6246   -2.1719    0.0287 C   0  0  0  0  0  0  0  0  0  0  0  0
   -0.4447   -0.8001    0.0209 C   0  0  0  0  0  0  0  0  0  0  0  0
    0.7185    0.0429   -0.0220 C   0  0  0  0  0  0  0  0  0  0  0  0
    2.0801   -0.2156   -0.0441 C   0  0  0  0  0  0  0  0  0  0  0  0
    2.9715    0.8490   -0.0706 C   0  0  0  0  0  0  0  0  0  0  0  0
    4.4214    0.6047   -0.1050 C   0  0  0  0  0  0  0  0  0  0  0  0
    4.9928   -0.3927    0.6820 C   0  0  0  0  0  0  0  0  0  0  0  0
    6.3555   -0.6219    0.6496 C   0  0  0  0  0  0  0  0  0  0  0  0
    7.1706    0.1378   -0.1728 C   0  0  0  0  0  0  0  0  0  0  0  0
    6.6134    1.1304   -0.9614 C   0  0  0  0  0  0  0  0  0  0  0  0
    5.2514    1.3640   -0.9267 C   0  0  0  0  0  0  0  0  0  0  0  0
    2.4824    2.1625   -0.0539 C   0  0  0  0  0  0  0  0  0  0  0  0
    1.1318    2.4426   -0.0244 C   0  0  0  0  0  0  0  0  0  0  0  0
    0.2458    1.3748   -0.0274 C   0  0  0  0  0  0  0  0  0  0  0  0
   -1.1349    1.3714    0.0167 N   0  0  0  0  0  0  0  0  0  0  0  0
   -1.9577    2.5083    0.0242 C   0  0  0  0  0  0  0  0  0  0  0  0
   -1.7793    3.5049   -0.9305 C   0  0  0  0  0  0  0  0  0  0  0  0
   -2.5890    4.6255   -0.9164 C   0  0  0  0  0  0  0  0  0  0  0  0
   -3.5842    4.7565    0.0378 C   0  0  0  0  0  0  0  0  0  0  0  0
   -3.7656    3.7627    0.9853 C   0  0  0  0  0  0  0  0  0  0  0  0
   -2.9543    2.6431    0.9858 C   0  0  0  0  0  0  0  0  0  0  0  0
   -1.5650    0.0644    0.0481 C   0  0  0  0  0  0  0  0  0  0  0  0
   -2.8554   -0.4495    0.0488 C   0  0  0  0  0  0  0  0  0  0  0  0
   -3.0153   -1.8183    0.0567 C   0  0  0  0  0  0  0  0  0  0  0  0
   -1.1443   -4.7121    0.0388 H   0  0  0  0  0  0  0  0  0  0  0  0
    0.2301   -2.8315    0.0097 H   0  0  0  0  0  0  0  0  0  0  0  0
    2.4413   -1.2328   -0.0591 H   0  0  0  0  0  0  0  0  0  0  0  0
    4.3645   -0.9770    1.3387 H   0  0  0  0  0  0  0  0  0  0  0  0
    6.7850   -1.3950    1.2704 H   0  0  0  0  0  0  0  0  0  0  0  0
    8.2351   -0.0427   -0.1988 H   0  0  0  0  0  0  0  0  0  0  0  0
    7.2436    1.7236   -1.6083 H   0  0  0  0  0  0  0  0  0  0  0  0
    4.8208    2.1285   -1.5572 H   0  0  0  0  0  0  0  0  0  0  0  0
    3.1885    2.9795   -0.0384 H   0  0  0  0  0  0  0  0  0  0  0  0
    0.7798    3.4624    0.0133 H   0  0  0  0  0  0  0  0  0  0  0  0
   -1.0169    3.3880   -1.6862 H   0  0  0  0  0  0  0  0  0  0  0  0
   -2.4471    5.3961   -1.6595 H   0  0  0  0  0  0  0  0  0  0  0  0
   -4.2170    5.6310    0.0430 H   0  0  0  0  0  0  0  0  0  0  0  0
   -4.5378    3.8628    1.7334 H   0  0  0  0  0  0  0  0  0  0  0  0
   -3.0780    1.8763    1.7359 H   0  0  0  0  0  0  0  0  0  0  0  0
   -3.7156    0.2021    0.0320 H   0  0  0  0  0  0  0  0  0  0  0  0
   -4.0152   -2.2188    0.0582 H   0  0  0  0  0  0  0  0  0  0  0  0
  1  2  1  0  0  0  0
  2  3  1  0  0  0  0
  2  4  2  0  0  0  0
  4  5  1  0  0  0  0
  5  6  4  0  0  0  0
  6  7  4  0  0  0  0
  7  8  1  0  0  0  0
  8  9  4  0  0  0  0
  9 10  4  0  0  0  0
 10 11  1  0  0  0  0
 11 12  4  0  0  0  0
 12 13  4  0  0  0  0
 13 14  4  0  0  0  0
 14 15  4  0  0  0  0
 11 16  4  0  0  0  0
 15 16  4  0  0  0  0
 10 17  4  0  0  0  0
 17 18  4  0  0  0  0
  8 19  4  0  0  0  0
 18 19  4  0  0  0  0
 19 20  1  0  0  0  0
 20 21  1  0  0  0  0
 21 22  4  0  0  0  0
 22 23  4  0  0  0  0
 23 24  4  0  0  0  0
 24 25  4  0  0  0  0
 21 26  4  0  0  0  0
 25 26  4  0  0  0  0
  7 27  4  0  0  0  0
 20 27  1  0  0  0  0
 27 28  4  0  0  0  0
  5 29  4  0  0  0  0
 28 29  4  0  0  0  0
  4 30  1  0  0  0  0
  6 31  1  0  0  0  0
  9 32  1  0  0  0  0
 12 33  1  0  0  0  0
 13 34  1  0  0  0  0
 14 35  1  0  0  0  0
 15 36  1  0  0  0  0
 16 37  1  0  0  0  0
 17 38  1  0  0  0  0
 18 39  1  0  0  0  0
 22 40  1  0  0  0  0
 23 41  1  0  0  0  0
 24 42  1  0  0  0  0
 25 43  1  0  0  0  0
 26 44  1  0  0  0  0
 28 45  1  0  0  0  0
 29 46  1  0  0  0  0
M  END
