
  xtb     02032211353D
 xtb: 6.4.1 (23d549d)
 24 24  0     0  0            999 V2000
    0.1675    3.6781   -0.1136 C   0  0  0  0  0  0  0  0  0  0  0  0
    0.8793    2.5753    0.0833 C   0  0  0  0  0  0  0  0  0  0  0  0
    0.3842    1.2025    0.0777 C   0  0  0  0  0  0  0  0  0  0  0  0
   -0.9697    0.8879    0.0148 C   0  0  0  0  0  0  0  0  0  0  0  0
   -1.4072   -0.4341    0.0115 C   0  0  0  0  0  0  0  0  0  0  0  0
   -2.8182   -0.8010   -0.0510 C   0  0  0  0  0  0  0  0  0  0  0  0
   -3.8554    0.0241   -0.1211 C   0  0  0  0  0  0  0  0  0  0  0  0
   -0.4552   -1.4529    0.0669 C   0  0  0  0  0  0  0  0  0  0  0  0
    0.8984   -1.1629    0.1346 C   0  0  0  0  0  0  0  0  0  0  0  0
    1.9155   -2.2767    0.2082 C   0  0  0  0  0  0  0  0  0  0  0  0
    3.1779   -1.9334   -0.3105 O   0  0  0  0  0  0  0  0  0  0  0  0
    1.3097    0.1600    0.1443 C   0  0  0  0  0  0  0  0  0  0  0  0
    0.6273    4.6513   -0.0937 H   0  0  0  0  0  0  0  0  0  0  0  0
   -0.8915    3.6640   -0.3065 H   0  0  0  0  0  0  0  0  0  0  0  0
    1.9446    2.6651    0.2585 H   0  0  0  0  0  0  0  0  0  0  0  0
   -1.6948    1.6837   -0.0232 H   0  0  0  0  0  0  0  0  0  0  0  0
   -3.0020   -1.8688   -0.0372 H   0  0  0  0  0  0  0  0  0  0  0  0
   -3.7516    1.0954   -0.1394 H   0  0  0  0  0  0  0  0  0  0  0  0
   -4.8643   -0.3492   -0.1630 H   0  0  0  0  0  0  0  0  0  0  0  0
   -0.7782   -2.4850    0.0612 H   0  0  0  0  0  0  0  0  0  0  0  0
    1.5197   -3.1708   -0.2975 H   0  0  0  0  0  0  0  0  0  0  0  0
    2.0963   -2.5368    1.2570 H   0  0  0  0  0  0  0  0  0  0  0  0
    3.0669   -1.6438   -1.2231 H   0  0  0  0  0  0  0  0  0  0  0  0
    2.3662    0.3806    0.2057 H   0  0  0  0  0  0  0  0  0  0  0  0
  1  2  2  0  0  0  0
  2  3  1  0  0  0  0
  3  4  4  0  0  0  0
  4  5  4  0  0  0  0
  5  6  1  0  0  0  0
  6  7  2  0  0  0  0
  5  8  4  0  0  0  0
  8  9  4  0  0  0  0
  9 10  1  0  0  0  0
 10 11  1  0  0  0  0
  3 12  4  0  0  0  0
  9 12  4  0  0  0  0
  1 13  1  0  0  0  0
  1 14  1  0  0  0  0
  2 15  1  0  0  0  0
  4 16  1  0  0  0  0
  6 17  1  0  0  0  0
  7 18  1  0  0  0  0
  7 19  1  0  0  0  0
  8 20  1  0  0  0  0
 10 21  1  0  0  0  0
 10 22  1  0  0  0  0
 11 23  1  0  0  0  0
 12 24  1  0  0  0  0
M  END
