
  xtb     02032210433D
 xtb: 6.4.1 (23d549d)
 22 23  0     0  0            999 V2000
   -2.3268    1.5037   -0.4535 c   0  0  0  0  0  0  0  0  0  0  0  0
   -1.4825    0.3932   -0.1223 n   0  0  0  0  0  0  0  0  0  0  0  0
   -1.8599   -0.8629    0.2392 c   0  0  0  0  0  0  0  0  0  0  0  0
   -0.8720   -1.6657    0.4915 n   0  0  0  0  0  0  0  0  0  0  0  0
   -0.1099    0.3926   -0.0974 c   0  0  0  0  0  0  0  0  0  0  0  0
    0.2581   -0.9189    0.2930 c   0  0  0  0  0  0  0  0  0  0  0  0
    1.6047   -1.2480    0.4140 c   0  0  0  0  0  0  0  0  0  0  0  0
    2.5305   -0.2685    0.1425 c   0  0  0  0  0  0  0  0  0  0  0  0
    2.1657    1.0359   -0.2499 c   0  0  0  0  0  0  0  0  0  0  0  0
    3.2407    1.9787   -0.5118 c   0  0  0  0  0  0  0  0  0  0  0  0
    3.1570    3.2364   -0.9195 c   0  0  0  0  0  0  0  0  0  0  0  0
    2.0602    3.9416   -1.1835 f   0  0  0  0  0  0  0  0  0  0  0  0
    4.2228    4.0088   -1.1318 f   0  0  0  0  0  0  0  0  0  0  0  0
    0.8218    1.3765   -0.3718 c   0  0  0  0  0  0  0  0  0  0  0  0
   -3.3677    1.1865   -0.4207 h   0  0  0  0  0  0  0  0  0  0  0  0
   -2.0961    1.8696   -1.4564 h   0  0  0  0  0  0  0  0  0  0  0  0
   -2.1799    2.3202    0.2576 h   0  0  0  0  0  0  0  0  0  0  0  0
   -2.8933   -1.1474    0.3031 h   0  0  0  0  0  0  0  0  0  0  0  0
    1.9010   -2.2406    0.7114 h   0  0  0  0  0  0  0  0  0  0  0  0
    3.5819   -0.4996    0.2295 h   0  0  0  0  0  0  0  0  0  0  0  0
    4.2471    1.6155   -0.3639 h   0  0  0  0  0  0  0  0  0  0  0  0
    0.5107    2.3651   -0.6657 h   0  0  0  0  0  0  0  0  0  0  0  0
  1  2  1  0  0  0  0
  2  3  4  0  0  0  0
  3  4  2  0  0  0  0
  2  5  1  0  0  0  0
  4  6  4  0  0  0  0
  5  6  4  0  0  0  0
  6  7  4  0  0  0  0
  7  8  2  0  0  0  0
  8  9  4  0  0  0  0
  9 10  1  0  0  0  0
 10 11  2  0  0  0  0
 11 12  1  0  0  0  0
 11 13  1  0  0  0  0
  5 14  4  0  0  0  0
  9 14  4  0  0  0  0
  1 15  1  0  0  0  0
  1 16  1  0  0  0  0
  1 17  1  0  0  0  0
  3 18  1  0  0  0  0
  7 19  1  0  0  0  0
  8 20  1  0  0  0  0
 10 21  1  0  0  0  0
 14 22  1  0  0  0  0
M  END
