
  xtb     02032211093D
 xtb: 6.4.1 (23d549d)
 20 20  0     0  0            999 V2000
    1.9866    0.9540   -0.4692 c   0  0  0  0  0  0  0  0  0  0  0  0
    2.8550    0.1680    0.1609 c   0  0  0  0  0  0  0  0  0  0  0  0
    3.5056   -0.9717   -0.4268 c   0  0  0  0  0  0  0  0  0  0  0  0
    2.9196   -1.6613   -1.9138 s   0  0  0  0  0  0  0  0  0  0  0  0
    4.0777   -2.9277   -1.8246 c   0  0  0  0  0  0  0  0  0  0  0  0
    4.8683   -2.8468   -0.7239 c   0  0  0  0  0  0  0  0  0  0  0  0
    5.9623   -3.8116   -0.4054 c   0  0  0  0  0  0  0  0  0  0  0  0
    4.5517   -1.7122    0.0841 c   0  0  0  0  0  0  0  0  0  0  0  0
    5.2933   -1.3956    1.2948 c   0  0  0  0  0  0  0  0  0  0  0  0
    5.6424   -0.1758    1.6816 c   0  0  0  0  0  0  0  0  0  0  0  0
    1.5127    1.7834    0.0252 h   0  0  0  0  0  0  0  0  0  0  0  0
    1.7261    0.7906   -1.5029 h   0  0  0  0  0  0  0  0  0  0  0  0
    3.1106    0.3548    1.1960 h   0  0  0  0  0  0  0  0  0  0  0  0
    4.1062   -3.6655   -2.6024 h   0  0  0  0  0  0  0  0  0  0  0  0
    6.0484   -4.5589   -1.1901 h   0  0  0  0  0  0  0  0  0  0  0  0
    5.7604   -4.3193    0.5378 h   0  0  0  0  0  0  0  0  0  0  0  0
    6.9133   -3.2884   -0.3107 h   0  0  0  0  0  0  0  0  0  0  0  0
    5.5993   -2.2521    1.8824 h   0  0  0  0  0  0  0  0  0  0  0  0
    5.4104    0.6963    1.0948 h   0  0  0  0  0  0  0  0  0  0  0  0
    6.1969   -0.0097    2.5898 h   0  0  0  0  0  0  0  0  0  0  0  0
  1  2  2  0  0  0  0
  2  3  1  0  0  0  0
  3  4  1  0  0  0  0
  4  5  1  0  0  0  0
  5  6  2  0  0  0  0
  6  7  1  0  0  0  0
  3  8  4  0  0  0  0
  6  8  4  0  0  0  0
  8  9  1  0  0  0  0
  9 10  2  0  0  0  0
  1 11  1  0  0  0  0
  1 12  1  0  0  0  0
  2 13  1  0  0  0  0
  5 14  1  0  0  0  0
  7 15  1  0  0  0  0
  7 16  1  0  0  0  0
  7 17  1  0  0  0  0
  9 18  1  0  0  0  0
 10 19  1  0  0  0  0
 10 20  1  0  0  0  0
M  END
