
  xtb     02012213453D
 xtb: 6.4.1 (23d549d)
 18 18  0     0  0            999 V2000
    1.0044    0.0678    0.0283 c   0  0  0  0  0  0  0  0  0  0  0  0
    2.5026    0.1001    0.0293 c   0  0  0  0  0  0  0  0  0  0  0  0
    3.1969    1.3024    0.0276 c   0  0  0  0  0  0  0  0  0  0  0  0
    4.5846    1.3459    0.0284 c   0  0  0  0  0  0  0  0  0  0  0  0
    5.3213    2.6508    0.0265 c   0  0  0  0  0  0  0  0  0  0  0  0
    5.2953    0.1518    0.0310 c   0  0  0  0  0  0  0  0  0  0  0  0
    4.5985   -1.0400    0.0327 c   0  0  0  0  0  0  0  0  0  0  0  0
    5.2933   -2.2011    0.0352 f   0  0  0  0  0  0  0  0  0  0  0  0
    3.2189   -1.0907    0.0319 c   0  0  0  0  0  0  0  0  0  0  0  0
    0.5922    1.0732    0.0273 h   0  0  0  0  0  0  0  0  0  0  0  0
    0.6375   -0.4589    0.9082 h   0  0  0  0  0  0  0  0  0  0  0  0
    0.6387   -0.4603   -0.8513 h   0  0  0  0  0  0  0  0  0  0  0  0
    2.6419    2.2299    0.0256 h   0  0  0  0  0  0  0  0  0  0  0  0
    4.6301    3.4894    0.0245 h   0  0  0  0  0  0  0  0  0  0  0  0
    5.9597    2.7228   -0.8530 h   0  0  0  0  0  0  0  0  0  0  0  0
    5.9586    2.7260    0.9065 h   0  0  0  0  0  0  0  0  0  0  0  0
    6.3740    0.1439    0.0317 h   0  0  0  0  0  0  0  0  0  0  0  0
    2.7160   -2.0450    0.0333 h   0  0  0  0  0  0  0  0  0  0  0  0
  1  2  1  0  0  0  0
  2  3  4  0  0  0  0
  3  4  4  0  0  0  0
  4  5  1  0  0  0  0
  4  6  4  0  0  0  0
  6  7  4  0  0  0  0
  7  8  1  0  0  0  0
  2  9  4  0  0  0  0
  7  9  4  0  0  0  0
  1 10  1  0  0  0  0
  1 11  1  0  0  0  0
  1 12  1  0  0  0  0
  3 13  1  0  0  0  0
  5 14  1  0  0  0  0
  5 15  1  0  0  0  0
  5 16  1  0  0  0  0
  6 17  1  0  0  0  0
  9 18  1  0  0  0  0
M  END
