19

C          0.94780       -0.00190       -0.01510
C          2.44160        0.09170       -0.01230
C          3.09410        1.32750       -0.01490
C          4.49480        1.37450       -0.01200
C          5.18960        2.71030       -0.01520
C          5.20800        0.15420       -0.00640
C          6.70900        0.07350       -0.00240
N          4.51270       -1.01490       -0.00420
N          3.18020       -1.04660       -0.00710
H          0.47530        1.00350       -0.01860
H          0.61000       -0.54880        0.88980
H          0.61360       -0.55330       -0.91870
H          2.51590        2.24390       -0.01910
H          4.46370        3.55120       -0.01980
H          5.82440        2.80210       -0.92150
H          5.82060        2.80870        0.89290
H          7.20270        1.06460       -0.00390
H          7.04760       -0.48040       -0.90280
H          7.04300       -0.47520        0.90300
