
 OpenBabel02012214083D

 25 25  0  0  0  0  0  0  0  0999 V2000
    1.0497    0.4469   -0.3850 C   0  0  0  0  0  0  0  0  0  0  0  0
    2.1970   -0.1232    0.1201 O   0  0  0  0  0  0  0  0  0  0  0  0
    2.8797   -1.2453   -0.2567 C   0  0  0  0  0  0  0  0  0  0  0  0
    2.5693   -2.0657   -1.3896 C   0  0  0  0  0  0  0  0  0  0  0  0
    1.4407   -1.7903   -2.3516 C   0  0  0  0  0  0  0  0  0  0  0  0
    3.3579   -3.2038   -1.6464 C   0  0  0  0  0  0  0  0  0  0  0  0
    4.4337   -3.5445   -0.8218 C   0  0  0  0  0  0  0  0  0  0  0  0
    5.2645   -4.7627   -1.1032 C   0  0  0  0  0  0  0  0  0  0  0  0
    4.7387   -2.7411    0.2755 C   0  0  0  0  0  0  0  0  0  0  0  0
    3.9764   -1.6019    0.5618 C   0  0  0  0  0  0  0  0  0  0  0  0
    4.3337   -0.7582    1.7568 C   0  0  0  0  0  0  0  0  0  0  0  0
    0.8114    1.3468    0.2179 H   0  0  0  0  0  0  0  0  0  0  0  0
    0.1939   -0.2503   -0.2858 H   0  0  0  0  0  0  0  0  0  0  0  0
    1.1989    0.7863   -1.4275 H   0  0  0  0  0  0  0  0  0  0  0  0
    1.5994   -0.8188   -2.8594 H   0  0  0  0  0  0  0  0  0  0  0  0
    0.4657   -1.8153   -1.8287 H   0  0  0  0  0  0  0  0  0  0  0  0
    1.3842   -2.5548   -3.1557 H   0  0  0  0  0  0  0  0  0  0  0  0
    3.1347   -3.8351   -2.4986 H   0  0  0  0  0  0  0  0  0  0  0  0
    4.9066   -5.3040   -2.0047 H   0  0  0  0  0  0  0  0  0  0  0  0
    5.2146   -5.4554   -0.2368 H   0  0  0  0  0  0  0  0  0  0  0  0
    6.3210   -4.4644   -1.2694 H   0  0  0  0  0  0  0  0  0  0  0  0
    5.5756   -3.0080    0.9111 H   0  0  0  0  0  0  0  0  0  0  0  0
    5.2134   -1.1625    2.3016 H   0  0  0  0  0  0  0  0  0  0  0  0
    3.4761   -0.7231    2.4613 H   0  0  0  0  0  0  0  0  0  0  0  0
    4.5764    0.2741    1.4265 H   0  0  0  0  0  0  0  0  0  0  0  0
  1  2  1  0  0  0  0
  1 12  1  0  0  0  0
  1 13  1  0  0  0  0
  1 14  1  0  0  0  0
  2  3  1  0  0  0  0
  3  4  1  0  0  0  0
  3 10  2  0  0  0  0
  4  5  1  0  0  0  0
  4  6  2  0  0  0  0
  5 15  1  0  0  0  0
  5 16  1  0  0  0  0
  5 17  1  0  0  0  0
  6  7  1  0  0  0  0
  6 18  1  0  0  0  0
  7  8  1  0  0  0  0
  7  9  2  0  0  0  0
  8 19  1  0  0  0  0
  8 20  1  0  0  0  0
  8 21  1  0  0  0  0
  9 10  1  0  0  0  0
  9 22  1  0  0  0  0
 10 11  1  0  0  0  0
 11 23  1  0  0  0  0
 11 24  1  0  0  0  0
 11 25  1  0  0  0  0
M  END
