
  xtb     02032211363D
 xtb: 6.4.1 (23d549d)
 24 25  0     0  0            999 V2000
    4.3638   -1.4756    0.1477 C   0  0  0  0  0  0  0  0  0  0  0  0
    3.0999   -1.8606    0.0177 C   0  0  0  0  0  0  0  0  0  0  0  0
    1.9172   -1.0073    0.0220 C   0  0  0  0  0  0  0  0  0  0  0  0
    1.9873    0.3817    0.1277 C   0  0  0  0  0  0  0  0  0  0  0  0
    0.8644    1.2148    0.1215 C   0  0  0  0  0  0  0  0  0  0  0  0
    1.0404    2.6643    0.1982 C   0  0  0  0  0  0  0  0  0  0  0  0
    0.2819    3.5658   -0.4111 C   0  0  0  0  0  0  0  0  0  0  0  0
   -0.3748    0.5873    0.0469 C   0  0  0  0  0  0  0  0  0  0  0  0
   -0.4696   -0.8111   -0.0550 C   0  0  0  0  0  0  0  0  0  0  0  0
    0.6572   -1.6085   -0.0803 C   0  0  0  0  0  0  0  0  0  0  0  0
   -1.8904   -1.1707   -0.1000 C   0  0  0  0  0  0  0  0  0  0  0  0
   -2.4093   -2.2508   -0.2076 O   0  0  0  0  0  0  0  0  0  0  0  0
   -2.6300    0.1885    0.0327 C   0  0  0  0  0  0  0  0  0  0  0  0
   -3.8141    0.3964    0.0770 O   0  0  0  0  0  0  0  0  0  0  0  0
   -1.6463    1.1388    0.0918 N   0  0  0  0  0  0  0  0  0  0  0  0
    5.1671   -2.1916    0.1332 H   0  0  0  0  0  0  0  0  0  0  0  0
    4.6558   -0.4473    0.2746 H   0  0  0  0  0  0  0  0  0  0  0  0
    2.8848   -2.9149   -0.1024 H   0  0  0  0  0  0  0  0  0  0  0  0
    2.9553    0.8534    0.2013 H   0  0  0  0  0  0  0  0  0  0  0  0
    1.8954    2.9893    0.7777 H   0  0  0  0  0  0  0  0  0  0  0  0
   -0.5378    3.2942   -1.0554 H   0  0  0  0  0  0  0  0  0  0  0  0
    0.4837    4.6194   -0.3221 H   0  0  0  0  0  0  0  0  0  0  0  0
    0.5559   -2.6797   -0.1647 H   0  0  0  0  0  0  0  0  0  0  0  0
   -1.8244    2.1201    0.2428 H   0  0  0  0  0  0  0  0  0  0  0  0
  1  2  2  0  0  0  0
  2  3  1  0  0  0  0
  3  4  4  0  0  0  0
  4  5  4  0  0  0  0
  5  6  1  0  0  0  0
  6  7  2  0  0  0  0
  5  8  4  0  0  0  0
  8  9  4  0  0  0  0
  3 10  4  0  0  0  0
  9 10  4  0  0  0  0
  9 11  1  0  0  0  0
 11 12  2  0  0  0  0
 11 13  1  0  0  0  0
 13 14  2  0  0  0  0
  8 15  1  0  0  0  0
 13 15  1  0  0  0  0
  1 16  1  0  0  0  0
  1 17  1  0  0  0  0
  2 18  1  0  0  0  0
  4 19  1  0  0  0  0
  6 20  1  0  0  0  0
  7 21  1  0  0  0  0
  7 22  1  0  0  0  0
 10 23  1  0  0  0  0
 15 24  1  0  0  0  0
M  END
