
 OpenBabel02032210513D

 19 19  0  0  0  0  0  0  0  0999 V2000
    1.0876   -0.4457    0.0365 C   0  0  0  0  0  0  0  0  0  0  0  0
    2.3291    0.0526   -0.0323 C   0  0  0  0  0  0  0  0  0  0  0  0
    3.0539    0.6913    1.1009 C   0  0  0  0  0  0  0  0  0  0  0  0
    2.5056    0.8393    2.3873 C   0  0  0  0  0  0  0  0  0  0  0  0
    3.2416    1.4514    3.4047 C   0  0  0  0  0  0  0  0  0  0  0  0
    4.5412    1.9229    3.1396 C   0  0  0  0  0  0  0  0  0  0  0  0
    5.4166    2.5919    4.1416 C   0  0  0  0  0  0  0  0  0  0  0  0
    5.1278    2.8661    5.4254 C   0  0  0  0  0  0  0  0  0  0  0  0
    3.9421    2.5542    6.0042 F   0  0  0  0  0  0  0  0  0  0  0  0
    6.0633    3.4891    6.1890 F   0  0  0  0  0  0  0  0  0  0  0  0
    5.0471    1.7644    1.8862 N   0  0  0  0  0  0  0  0  0  0  0  0
    4.3510    1.1730    0.8807 C   0  0  0  0  0  0  0  0  0  0  0  0
    0.6426   -0.8925   -0.8469 H   0  0  0  0  0  0  0  0  0  0  0  0
    0.4937   -0.4265    0.9405 H   0  0  0  0  0  0  0  0  0  0  0  0
    2.8387   -0.0165   -0.9898 H   0  0  0  0  0  0  0  0  0  0  0  0
    1.5123    0.4896    2.6248 H   0  0  0  0  0  0  0  0  0  0  0  0
    2.7751    1.5388    4.3702 H   0  0  0  0  0  0  0  0  0  0  0  0
    6.4000    2.8933    3.7904 H   0  0  0  0  0  0  0  0  0  0  0  0
    4.8142    1.0808   -0.0936 H   0  0  0  0  0  0  0  0  0  0  0  0
  1  2  2  0  0  0  0
  1 13  1  0  0  0  0
  1 14  1  0  0  0  0
  2  3  1  0  0  0  0
  2 15  1  0  0  0  0
  3  4  1  0  0  0  0
  3 12  2  0  0  0  0
  4  5  2  0  0  0  0
  4 16  1  0  0  0  0
  5  6  1  0  0  0  0
  5 17  1  0  0  0  0
  6  7  1  0  0  0  0
  6 11  2  0  0  0  0
  7  8  2  0  0  0  0
  7 18  1  0  0  0  0
  8  9  1  0  0  0  0
  8 10  1  0  0  0  0
 11 12  1  0  0  0  0
 12 19  1  0  0  0  0
M  END
