
 OpenBabel02032211143D

 53 53  0  0  0  0  0  0  0  0999 V2000
    1.2091   -0.3316    0.0632 C   0  0  0  0  0  0  0  0  0  0  0  0
    2.3784    0.2011   -0.3104 C   0  0  0  0  0  0  0  0  0  0  0  0
    3.0432    1.2971    0.4224 C   0  0  0  0  0  0  0  0  0  0  0  0
    2.6432    1.8938    1.6128 C   0  0  0  0  0  0  0  0  0  0  0  0
    3.4914    2.9387    2.0491 C   0  0  0  0  0  0  0  0  0  0  0  0
    3.2583    3.7164    3.3306 C   0  0  0  0  0  0  0  0  0  0  0  0
    2.0666    3.2224    4.1666 C   0  0  0  0  0  0  0  0  0  0  0  0
    1.9203    4.0251    5.4644 C   0  0  0  0  0  0  0  0  0  0  0  0
    0.7274    3.5096    6.2806 C   0  0  0  0  0  0  0  0  0  0  0  0
    0.5553    4.3044    7.5792 C   0  0  0  0  0  0  0  0  0  0  0  0
   -0.6573    3.7922    8.3668 C   0  0  0  0  0  0  0  0  0  0  0  0
   -0.8543    4.5896    9.6604 C   0  0  0  0  0  0  0  0  0  0  0  0
   -2.0810    4.0850   10.4293 C   0  0  0  0  0  0  0  0  0  0  0  0
   -2.2883    4.8843   11.7206 C   0  0  0  0  0  0  0  0  0  0  0  0
   -3.5204    4.3826   12.4826 C   0  0  0  0  0  0  0  0  0  0  0  0
   -3.7294    5.1814   13.7739 C   0  0  0  0  0  0  0  0  0  0  0  0
   -4.9554    4.6848   14.5345 C   0  0  0  0  0  0  0  0  0  0  0  0
    4.5744    3.1530    1.1670 C   0  0  0  0  0  0  0  0  0  0  0  0
    5.6988    4.1261    1.1936 C   0  0  0  0  0  0  0  0  0  0  0  0
    5.8720    5.1275    2.0622 C   0  0  0  0  0  0  0  0  0  0  0  0
    4.4511    2.0397   -0.0901 S   0  0  0  0  0  0  0  0  0  0  0  0
    0.7698   -1.1306   -0.5254 H   0  0  0  0  0  0  0  0  0  0  0  0
    0.6694    0.0149    0.9368 H   0  0  0  0  0  0  0  0  0  0  0  0
    2.8589   -0.1844   -1.2042 H   0  0  0  0  0  0  0  0  0  0  0  0
    1.7579    1.5796    2.1433 H   0  0  0  0  0  0  0  0  0  0  0  0
    3.0849    4.7820    3.0741 H   0  0  0  0  0  0  0  0  0  0  0  0
    4.1703    3.6168    3.9599 H   0  0  0  0  0  0  0  0  0  0  0  0
    2.2222    2.1528    4.4269 H   0  0  0  0  0  0  0  0  0  0  0  0
    1.1314    3.3256    3.5715 H   0  0  0  0  0  0  0  0  0  0  0  0
    1.7633    5.0983    5.2189 H   0  0  0  0  0  0  0  0  0  0  0  0
    2.8491    3.9267    6.0679 H   0  0  0  0  0  0  0  0  0  0  0  0
    0.8853    2.4356    6.5254 H   0  0  0  0  0  0  0  0  0  0  0  0
   -0.1972    3.6047    5.6694 H   0  0  0  0  0  0  0  0  0  0  0  0
    0.4047    5.3781    7.3344 H   0  0  0  0  0  0  0  0  0  0  0  0
    1.4717    4.2014    8.2014 H   0  0  0  0  0  0  0  0  0  0  0  0
   -0.5102    2.7175    8.6152 H   0  0  0  0  0  0  0  0  0  0  0  0
   -1.5687    3.8914    7.7362 H   0  0  0  0  0  0  0  0  0  0  0  0
   -0.9965    5.6643    9.4101 H   0  0  0  0  0  0  0  0  0  0  0  0
    0.0511    4.4868   10.2983 H   0  0  0  0  0  0  0  0  0  0  0  0
   -1.9415    3.0101   10.6802 H   0  0  0  0  0  0  0  0  0  0  0  0
   -2.9835    4.1881    9.7869 H   0  0  0  0  0  0  0  0  0  0  0  0
   -2.4258    5.9591   11.4688 H   0  0  0  0  0  0  0  0  0  0  0  0
   -1.3882    4.7795   12.3658 H   0  0  0  0  0  0  0  0  0  0  0  0
   -3.3844    3.3073   12.7338 H   0  0  0  0  0  0  0  0  0  0  0  0
   -4.4199    4.4882   11.8364 H   0  0  0  0  0  0  0  0  0  0  0  0
   -3.8697    6.2569   13.5296 H   0  0  0  0  0  0  0  0  0  0  0  0
   -2.8351    5.0770   14.4265 H   0  0  0  0  0  0  0  0  0  0  0  0
   -5.8680    4.7983   13.9112 H   0  0  0  0  0  0  0  0  0  0  0  0
   -5.0826    5.2789   15.4637 H   0  0  0  0  0  0  0  0  0  0  0  0
   -4.8315    3.6155   14.8095 H   0  0  0  0  0  0  0  0  0  0  0  0
    6.4503    4.0193    0.4158 H   0  0  0  0  0  0  0  0  0  0  0  0
    5.1943    5.3531    2.8662 H   0  0  0  0  0  0  0  0  0  0  0  0
    6.7394    5.7721    1.9594 H   0  0  0  0  0  0  0  0  0  0  0  0
  1  2  2  0  0  0  0
  1 22  1  0  0  0  0
  1 23  1  0  0  0  0
  2  3  1  0  0  0  0
  2 24  1  0  0  0  0
  3  4  2  0  0  0  0
  3 21  1  0  0  0  0
  4  5  1  0  0  0  0
  4 25  1  0  0  0  0
  5  6  1  0  0  0  0
  5 18  2  0  0  0  0
  6  7  1  0  0  0  0
  6 26  1  0  0  0  0
  6 27  1  0  0  0  0
  7  8  1  0  0  0  0
  7 28  1  0  0  0  0
  7 29  1  0  0  0  0
  8  9  1  0  0  0  0
  8 30  1  0  0  0  0
  8 31  1  0  0  0  0
  9 10  1  0  0  0  0
  9 32  1  0  0  0  0
  9 33  1  0  0  0  0
 10 11  1  0  0  0  0
 10 34  1  0  0  0  0
 10 35  1  0  0  0  0
 11 12  1  0  0  0  0
 11 36  1  0  0  0  0
 11 37  1  0  0  0  0
 12 13  1  0  0  0  0
 12 38  1  0  0  0  0
 12 39  1  0  0  0  0
 13 14  1  0  0  0  0
 13 40  1  0  0  0  0
 13 41  1  0  0  0  0
 14 15  1  0  0  0  0
 14 42  1  0  0  0  0
 14 43  1  0  0  0  0
 15 16  1  0  0  0  0
 15 44  1  0  0  0  0
 15 45  1  0  0  0  0
 16 17  1  0  0  0  0
 16 46  1  0  0  0  0
 16 47  1  0  0  0  0
 17 48  1  0  0  0  0
 17 49  1  0  0  0  0
 17 50  1  0  0  0  0
 18 19  1  0  0  0  0
 18 21  1  0  0  0  0
 19 20  2  0  0  0  0
 19 51  1  0  0  0  0
 20 52  1  0  0  0  0
 20 53  1  0  0  0  0
M  END
