24

C          2.43860        1.05490       -0.56954
C          2.17130       -0.01660        0.18850
C          2.93660       -1.29680        0.16580
C          2.60710       -2.37050       -0.67930
C          3.35740       -3.55530       -0.66490
C          2.96910       -4.68130       -1.58780
C          4.46100       -3.67530        0.21140
O          5.20140       -4.80920        0.24620
C          4.80390       -2.60680        1.06970
C          5.97090       -2.76280        1.99400
C          5.90993       -3.24260        3.24448
C          4.03290       -1.42730        1.03060
H          1.81680        1.94010       -0.47821
H          3.25017        1.08888       -1.28364
H          1.32605        0.06030        0.86779
H          1.76980       -2.30130       -1.35630
H          2.08270       -4.42460       -2.20600
H          2.71950       -5.58480       -0.99260
H          3.80990       -4.91150       -2.27560
H          5.03330       -5.58410       -0.30610
H          6.95574       -2.47455        1.63909
H          4.99291       -3.57055        3.71338
H          6.82069       -3.31796        3.82991
H          4.27090       -0.59210        1.67160
24

C          1.12123        0.23992        0.97954
C          2.17130       -0.01660        0.18850
C          2.93660       -1.29680        0.16580
C          2.60710       -2.37050       -0.67930
C          3.35740       -3.55530       -0.66490
C          2.96910       -4.68130       -1.58780
C          4.46100       -3.67530        0.21140
O          5.20140       -4.80920        0.24620
C          4.80390       -2.60680        1.06970
C          5.97090       -2.76280        1.99400
C          7.23765       -2.43202        1.70494
C          4.03290       -1.42730        1.03060
H          0.63394        1.20820        0.92011
H          0.72573       -0.47295        1.69027
H          2.48605        0.77771       -0.48367
H          1.76980       -2.30130       -1.35630
H          2.08270       -4.42460       -2.20600
H          2.71950       -5.58480       -0.99260
H          3.80990       -4.91150       -2.27560
H          5.03330       -5.58410       -0.30610
H          5.79652       -3.17002        2.98532
H          7.54271       -2.01107        0.75726
H          8.01019       -2.58296        2.45213
H          4.27090       -0.59210        1.67160
24

C          1.12123        0.23992        0.97954
C          2.17130       -0.01660        0.18850
C          2.93660       -1.29680        0.16580
C          2.60710       -2.37050       -0.67930
C          3.35740       -3.55530       -0.66490
C          2.96910       -4.68130       -1.58780
C          4.46100       -3.67530        0.21140
O          5.20140       -4.80920        0.24620
C          4.80390       -2.60680        1.06970
C          5.97090       -2.76280        1.99400
C          5.90993       -3.24260        3.24448
C          4.03290       -1.42730        1.03060
H          0.63394        1.20820        0.92011
H          0.72573       -0.47295        1.69027
H          2.48605        0.77771       -0.48367
H          1.76980       -2.30130       -1.35630
H          2.08270       -4.42460       -2.20600
H          2.71950       -5.58480       -0.99260
H          3.80990       -4.91150       -2.27560
H          5.03330       -5.58410       -0.30610
H          6.95574       -2.47455        1.63909
H          4.99291       -3.57055        3.71338
H          6.82069       -3.31796        3.82991
H          4.27090       -0.59210        1.67160
24

C          2.43860        1.05490       -0.56954
C          2.17130       -0.01660        0.18850
C          2.93660       -1.29680        0.16580
C          2.60710       -2.37050       -0.67930
C          3.35740       -3.55530       -0.66490
C          2.96910       -4.68130       -1.58780
C          4.46100       -3.67530        0.21140
O          5.20140       -4.80920        0.24620
C          4.80390       -2.60680        1.06970
C          5.97090       -2.76280        1.99400
C          7.23765       -2.43202        1.70494
C          4.03290       -1.42730        1.03060
H          1.81680        1.94010       -0.47821
H          3.25017        1.08888       -1.28364
H          1.32605        0.06030        0.86779
H          1.76980       -2.30130       -1.35630
H          2.08270       -4.42460       -2.20600
H          2.71950       -5.58480       -0.99260
H          3.80990       -4.91150       -2.27560
H          5.03330       -5.58410       -0.30610
H          5.79652       -3.17002        2.98532
H          7.54271       -2.01107        0.75726
H          8.01019       -2.58296        2.45213
H          4.27090       -0.59210        1.67160
24

C          2.43860        1.05490       -0.56954
C          2.17130       -0.01660        0.18850
C          2.93660       -1.29680        0.16580
C          2.60710       -2.37050       -0.67930
C          3.35740       -3.55530       -0.66490
C          2.96910       -4.68130       -1.58780
C          4.46100       -3.67530        0.21140
O          5.20140       -4.80920        0.24620
C          4.80390       -2.60680        1.06970
C          5.97090       -2.76280        1.99400
C          6.76357       -1.76709        2.41573
C          4.03290       -1.42730        1.03060
H          1.81680        1.94010       -0.47821
H          3.25017        1.08888       -1.28364
H          1.32605        0.06030        0.86779
H          1.76980       -2.30130       -1.35630
H          2.08270       -4.42460       -2.20600
H          2.71950       -5.58480       -0.99260
H          3.80990       -4.91150       -2.27560
H          5.03330       -5.58410       -0.30610
H          6.20710       -3.75429        2.36832
H          6.63151       -0.73496        2.12310
H          7.58307       -1.98992        3.09149
H          4.27090       -0.59210        1.67160
24

C          2.43860        1.05490       -0.56954
C          2.17130       -0.01660        0.18850
C          2.93660       -1.29680        0.16580
C          2.60710       -2.37050       -0.67930
C          3.35740       -3.55530       -0.66490
C          2.96910       -4.68130       -1.58780
C          4.46100       -3.67530        0.21140
O          5.20140       -4.80920        0.24620
C          4.80390       -2.60680        1.06970
C          5.97090       -2.76280        1.99400
C          6.09263       -2.17670        3.19371
C          4.03290       -1.42730        1.03060
H          1.81680        1.94010       -0.47821
H          3.25017        1.08888       -1.28364
H          1.32605        0.06030        0.86779
H          1.76980       -2.30130       -1.35630
H          2.08270       -4.42460       -2.20600
H          2.71950       -5.58480       -0.99260
H          3.80990       -4.91150       -2.27560
H          5.03330       -5.58410       -0.30610
H          6.79290       -3.40284        1.68802
H          5.34300       -1.52302        3.61693
H          6.98197       -2.36134        3.78773
H          4.27090       -0.59210        1.67160
24

C          2.02190        0.77336        1.25987
C          2.17130       -0.01660        0.18850
C          2.93660       -1.29680        0.16580
C          2.60710       -2.37050       -0.67930
C          3.35740       -3.55530       -0.66490
C          2.96910       -4.68130       -1.58780
C          4.46100       -3.67530        0.21140
O          5.20140       -4.80920        0.24620
C          4.80390       -2.60680        1.06970
C          5.97090       -2.76280        1.99400
C          7.23765       -2.43202        1.70494
C          4.03290       -1.42730        1.03060
H          1.44538        1.68885        1.17001
H          2.45367        0.55051        2.22612
H          1.69759        0.31080       -0.73357
H          1.76980       -2.30130       -1.35630
H          2.08270       -4.42460       -2.20600
H          2.71950       -5.58480       -0.99260
H          3.80990       -4.91150       -2.27560
H          5.03330       -5.58410       -0.30610
H          5.79652       -3.17002        2.98532
H          7.54271       -2.01107        0.75726
H          8.01019       -2.58296        2.45213
H          4.27090       -0.59210        1.67160
24

C          2.02190        0.77336        1.25987
C          2.17130       -0.01660        0.18850
C          2.93660       -1.29680        0.16580
C          2.60710       -2.37050       -0.67930
C          3.35740       -3.55530       -0.66490
C          2.96910       -4.68130       -1.58780
C          4.46100       -3.67530        0.21140
O          5.20140       -4.80920        0.24620
C          4.80390       -2.60680        1.06970
C          5.97090       -2.76280        1.99400
C          5.90993       -3.24260        3.24448
C          4.03290       -1.42730        1.03060
H          1.44538        1.68885        1.17001
H          2.45367        0.55051        2.22612
H          1.69759        0.31080       -0.73357
H          1.76980       -2.30130       -1.35630
H          2.08270       -4.42460       -2.20600
H          2.71950       -5.58480       -0.99260
H          3.80990       -4.91150       -2.27560
H          5.03330       -5.58410       -0.30610
H          6.95574       -2.47455        1.63909
H          4.99291       -3.57055        3.71338
H          6.82069       -3.31796        3.82991
H          4.27090       -0.59210        1.67160
24

C          2.02190        0.77336        1.25987
C          2.17130       -0.01660        0.18850
C          2.93660       -1.29680        0.16580
C          2.60710       -2.37050       -0.67930
C          3.35740       -3.55530       -0.66490
C          2.96910       -4.68130       -1.58780
C          4.46100       -3.67530        0.21140
O          5.20140       -4.80920        0.24620
C          4.80390       -2.60680        1.06970
C          5.97090       -2.76280        1.99400
C          6.76357       -1.76709        2.41573
C          4.03290       -1.42730        1.03060
H          1.44538        1.68885        1.17001
H          2.45367        0.55051        2.22612
H          1.69759        0.31080       -0.73357
H          1.76980       -2.30130       -1.35630
H          2.08270       -4.42460       -2.20600
H          2.71950       -5.58480       -0.99260
H          3.80990       -4.91150       -2.27560
H          5.03330       -5.58410       -0.30610
H          6.20710       -3.75429        2.36832
H          6.63151       -0.73496        2.12310
H          7.58307       -1.98992        3.09149
H          4.27090       -0.59210        1.67160
24

C          1.12123        0.23992        0.97954
C          2.17130       -0.01660        0.18850
C          2.93660       -1.29680        0.16580
C          2.60710       -2.37050       -0.67930
C          3.35740       -3.55530       -0.66490
C          2.96910       -4.68130       -1.58780
C          4.46100       -3.67530        0.21140
O          5.20140       -4.80920        0.24620
C          4.80390       -2.60680        1.06970
C          5.97090       -2.76280        1.99400
C          6.76357       -1.76709        2.41573
C          4.03290       -1.42730        1.03060
H          0.63394        1.20820        0.92011
H          0.72573       -0.47295        1.69027
H          2.48605        0.77771       -0.48367
H          1.76980       -2.30130       -1.35630
H          2.08270       -4.42460       -2.20600
H          2.71950       -5.58480       -0.99260
H          3.80990       -4.91150       -2.27560
H          5.03330       -5.58410       -0.30610
H          6.20710       -3.75429        2.36832
H          6.63151       -0.73496        2.12310
H          7.58307       -1.98992        3.09149
H          4.27090       -0.59210        1.67160
