
  xtb     02032211263D
 xtb: 6.4.1 (23d549d)
 21 22  0     0  0            999 V2000
    1.8236   -0.4151   -0.7995 c   0  0  0  0  0  0  0  0  0  0  0  0
    2.8829    0.0004   -0.1117 c   0  0  0  0  0  0  0  0  0  0  0  0
    3.4882   -0.6662    1.0266 c   0  0  0  0  0  0  0  0  0  0  0  0
    3.0346   -1.8400    1.5914 c   0  0  0  0  0  0  0  0  0  0  0  0
    3.6550   -2.4443    2.6919 c   0  0  0  0  0  0  0  0  0  0  0  0
    4.7728   -1.9172    3.3047 c   0  0  0  0  0  0  0  0  0  0  0  0
    5.4525   -2.5021    4.4458 c   0  0  0  0  0  0  0  0  0  0  0  0
    5.1089   -3.6164    5.0847 c   0  0  0  0  0  0  0  0  0  0  0  0
    5.2807   -0.7047    2.7576 c   0  0  0  0  0  0  0  0  0  0  0  0
    6.3441   -0.0525    3.2120 n   0  0  0  0  0  0  0  0  0  0  0  0
    6.5988    1.3794    2.2406 se  0  0  0  0  0  0  0  0  0  0  0  0
    5.2194    1.0429    1.2197 n   0  0  0  0  0  0  0  0  0  0  0  0
    4.6408   -0.0816    1.6242 c   0  0  0  0  0  0  0  0  0  0  0  0
    1.4453    0.1502   -1.6332 h   0  0  0  0  0  0  0  0  0  0  0  0
    1.2937   -1.3231   -0.5665 h   0  0  0  0  0  0  0  0  0  0  0  0
    3.3792    0.9199   -0.3923 h   0  0  0  0  0  0  0  0  0  0  0  0
    2.1632   -2.3219    1.1754 h   0  0  0  0  0  0  0  0  0  0  0  0
    3.2319   -3.3627    3.0689 h   0  0  0  0  0  0  0  0  0  0  0  0
    6.3166   -1.9391    4.7735 h   0  0  0  0  0  0  0  0  0  0  0  0
    4.2585   -4.2144    4.8030 h   0  0  0  0  0  0  0  0  0  0  0  0
    5.6779   -3.9731    5.9255 h   0  0  0  0  0  0  0  0  0  0  0  0
  1  2  2  0  0  0  0
  2  3  1  0  0  0  0
  3  4  4  0  0  0  0
  4  5  4  0  0  0  0
  5  6  4  0  0  0  0
  6  7  1  0  0  0  0
  7  8  2  0  0  0  0
  6  9  1  0  0  0  0
  9 10  4  0  0  0  0
 10 11  2  0  0  0  0
 11 12  2  0  0  0  0
  3 13  1  0  0  0  0
  9 13  1  0  0  0  0
 12 13  4  0  0  0  0
  1 14  1  0  0  0  0
  1 15  1  0  0  0  0
  2 16  1  0  0  0  0
  4 17  1  0  0  0  0
  5 18  1  0  0  0  0
  7 19  1  0  0  0  0
  8 20  1  0  0  0  0
  8 21  1  0  0  0  0
M  END
