
  xtb     02032211353D
 xtb: 6.4.1 (23d549d)
 53 53  0     0  0            999 V2000
    2.6698    4.5246    2.0193 C   0  0  0  0  0  0  0  0  0  0  0  0
    1.7173    3.7041    1.5847 C   0  0  0  0  0  0  0  0  0  0  0  0
    1.7811    2.9347    0.3735 C   0  0  0  0  0  0  0  0  0  0  0  0
    0.8263    2.0819   -0.1170 C   0  0  0  0  0  0  0  0  0  0  0  0
    1.1636    1.4531   -1.3315 C   0  0  0  0  0  0  0  0  0  0  0  0
    0.2344    0.4846   -1.9931 C   0  0  0  0  0  0  0  0  0  0  0  0
    0.5650   -0.9687   -1.6241 C   0  0  0  0  0  0  0  0  0  0  0  0
    0.3320   -1.2557   -0.1432 C   0  0  0  0  0  0  0  0  0  0  0  0
    0.6046   -2.7188    0.1966 C   0  0  0  0  0  0  0  0  0  0  0  0
    0.5074   -3.0245    1.6927 C   0  0  0  0  0  0  0  0  0  0  0  0
   -0.8570   -2.7337    2.3205 C   0  0  0  0  0  0  0  0  0  0  0  0
   -1.9893   -3.5511    1.7032 C   0  0  0  0  0  0  0  0  0  0  0  0
   -3.3184   -3.3921    2.4429 C   0  0  0  0  0  0  0  0  0  0  0  0
   -3.8771   -1.9667    2.4642 C   0  0  0  0  0  0  0  0  0  0  0  0
   -4.0743   -1.3259    1.0896 C   0  0  0  0  0  0  0  0  0  0  0  0
   -5.0653   -2.0744    0.2016 C   0  0  0  0  0  0  0  0  0  0  0  0
   -5.3140   -1.3335   -1.1070 C   0  0  0  0  0  0  0  0  0  0  0  0
    2.4094    1.8334   -1.7866 C   0  0  0  0  0  0  0  0  0  0  0  0
    3.1772    1.5083   -2.9604 C   0  0  0  0  0  0  0  0  0  0  0  0
    2.9521    0.5634   -3.8710 C   0  0  0  0  0  0  0  0  0  0  0  0
    3.1460    2.9802   -0.6948 S   0  0  0  0  0  0  0  0  0  0  0  0
    2.5668    5.0773    2.9360 H   0  0  0  0  0  0  0  0  0  0  0  0
    3.5832    4.6655    1.4651 H   0  0  0  0  0  0  0  0  0  0  0  0
    0.8047    3.5731    2.1531 H   0  0  0  0  0  0  0  0  0  0  0  0
   -0.1105    1.9135    0.3865 H   0  0  0  0  0  0  0  0  0  0  0  0
    0.2795    0.6111   -3.0761 H   0  0  0  0  0  0  0  0  0  0  0  0
   -0.7868    0.7055   -1.6730 H   0  0  0  0  0  0  0  0  0  0  0  0
    1.6083   -1.1785   -1.8682 H   0  0  0  0  0  0  0  0  0  0  0  0
   -0.0620   -1.6351   -2.2223 H   0  0  0  0  0  0  0  0  0  0  0  0
   -0.7010   -1.0054    0.1056 H   0  0  0  0  0  0  0  0  0  0  0  0
    0.9854   -0.6189    0.4572 H   0  0  0  0  0  0  0  0  0  0  0  0
    1.6139   -2.9736   -0.1376 H   0  0  0  0  0  0  0  0  0  0  0  0
   -0.0885   -3.3559   -0.3562 H   0  0  0  0  0  0  0  0  0  0  0  0
    1.2628   -2.4352    2.2192 H   0  0  0  0  0  0  0  0  0  0  0  0
    0.7484   -4.0797    1.8455 H   0  0  0  0  0  0  0  0  0  0  0  0
   -1.0748   -1.6694    2.2307 H   0  0  0  0  0  0  0  0  0  0  0  0
   -0.7984   -2.9653    3.3874 H   0  0  0  0  0  0  0  0  0  0  0  0
   -1.7100   -4.6081    1.7238 H   0  0  0  0  0  0  0  0  0  0  0  0
   -2.1231   -3.2701    0.6589 H   0  0  0  0  0  0  0  0  0  0  0  0
   -3.1873   -3.7185    3.4780 H   0  0  0  0  0  0  0  0  0  0  0  0
   -4.0535   -4.0578    1.9856 H   0  0  0  0  0  0  0  0  0  0  0  0
   -3.2119   -1.3309    3.0522 H   0  0  0  0  0  0  0  0  0  0  0  0
   -4.8408   -1.9892    2.9800 H   0  0  0  0  0  0  0  0  0  0  0  0
   -3.1153   -1.2517    0.5736 H   0  0  0  0  0  0  0  0  0  0  0  0
   -4.4403   -0.3062    1.2390 H   0  0  0  0  0  0  0  0  0  0  0  0
   -6.0101   -2.1932    0.7372 H   0  0  0  0  0  0  0  0  0  0  0  0
   -4.6816   -3.0712   -0.0217 H   0  0  0  0  0  0  0  0  0  0  0  0
   -5.7231   -0.3436   -0.9151 H   0  0  0  0  0  0  0  0  0  0  0  0
   -6.0181   -1.8801   -1.7302 H   0  0  0  0  0  0  0  0  0  0  0  0
   -4.3851   -1.2166   -1.6619 H   0  0  0  0  0  0  0  0  0  0  0  0
    4.0553    2.1331   -3.0785 H   0  0  0  0  0  0  0  0  0  0  0  0
    2.1274   -0.1225   -3.8281 H   0  0  0  0  0  0  0  0  0  0  0  0
    3.6197    0.4473   -4.7077 H   0  0  0  0  0  0  0  0  0  0  0  0
  1  2  2  0  0  0  0
  2  3  1  0  0  0  0
  3  4  2  0  0  0  0
  4  5  4  0  0  0  0
  5  6  1  0  0  0  0
  6  7  1  0  0  0  0
  7  8  1  0  0  0  0
  8  9  1  0  0  0  0
  9 10  1  0  0  0  0
 10 11  1  0  0  0  0
 11 12  1  0  0  0  0
 12 13  1  0  0  0  0
 13 14  1  0  0  0  0
 14 15  1  0  0  0  0
 15 16  1  0  0  0  0
 16 17  1  0  0  0  0
  5 18  4  0  0  0  0
 18 19  1  0  0  0  0
 19 20  2  0  0  0  0
  3 21  1  0  0  0  0
 18 21  1  0  0  0  0
  1 22  1  0  0  0  0
  1 23  1  0  0  0  0
  2 24  1  0  0  0  0
  4 25  1  0  0  0  0
  6 26  1  0  0  0  0
  6 27  1  0  0  0  0
  7 28  1  0  0  0  0
  7 29  1  0  0  0  0
  8 30  1  0  0  0  0
  8 31  1  0  0  0  0
  9 32  1  0  0  0  0
  9 33  1  0  0  0  0
 10 34  1  0  0  0  0
 10 35  1  0  0  0  0
 11 36  1  0  0  0  0
 11 37  1  0  0  0  0
 12 38  1  0  0  0  0
 12 39  1  0  0  0  0
 13 40  1  0  0  0  0
 13 41  1  0  0  0  0
 14 42  1  0  0  0  0
 14 43  1  0  0  0  0
 15 44  1  0  0  0  0
 15 45  1  0  0  0  0
 16 46  1  0  0  0  0
 16 47  1  0  0  0  0
 17 48  1  0  0  0  0
 17 49  1  0  0  0  0
 17 50  1  0  0  0  0
 19 51  1  0  0  0  0
 20 52  1  0  0  0  0
 20 53  1  0  0  0  0
M  END
