
  xtb     02012213403D
 xtb: 6.4.1 (23d549d)
 21 22  0     0  0            999 V2000
    1.0173   -0.0915   -0.0319 c   0  0  0  0  0  0  0  0  0  0  0  0
    2.4504   -0.0871   -0.0325 n   0  0  0  0  0  0  0  0  0  0  0  0
    3.2889   -1.1613   -0.0345 c   0  0  0  0  0  0  0  0  0  0  0  0
    4.5480   -0.8556   -0.0347 n   0  0  0  0  0  0  0  0  0  0  0  0
    3.2630    1.0204   -0.0313 c   0  0  0  0  0  0  0  0  0  0  0  0
    4.5856    0.5170   -0.0327 c   0  0  0  0  0  0  0  0  0  0  0  0
    5.6577    1.4004   -0.0320 c   0  0  0  0  0  0  0  0  0  0  0  0
    5.3784    2.7505   -0.0298 c   0  0  0  0  0  0  0  0  0  0  0  0
    4.0698    3.2496   -0.0284 c   0  0  0  0  0  0  0  0  0  0  0  0
    3.8232    4.7301   -0.0260 c   0  0  0  0  0  0  0  0  0  0  0  0
    2.9927    2.3780   -0.0291 c   0  0  0  0  0  0  0  0  0  0  0  0
    0.6602   -1.1203   -0.0330 h   0  0  0  0  0  0  0  0  0  0  0  0
    0.6337    0.4195   -0.9188 h   0  0  0  0  0  0  0  0  0  0  0  0
    0.6345    0.4173    0.8566 h   0  0  0  0  0  0  0  0  0  0  0  0
    2.9153   -2.1683   -0.0358 h   0  0  0  0  0  0  0  0  0  0  0  0
    6.6710    1.0323   -0.0331 h   0  0  0  0  0  0  0  0  0  0  0  0
    6.1968    3.4563   -0.0292 h   0  0  0  0  0  0  0  0  0  0  0  0
    4.7600    5.2807   -0.0258 h   0  0  0  0  0  0  0  0  0  0  0  0
    3.2512    5.0199    0.8550 h   0  0  0  0  0  0  0  0  0  0  0  0
    3.2500    5.0225   -0.9054 h   0  0  0  0  0  0  0  0  0  0  0  0
    1.9788    2.7522   -0.0280 h   0  0  0  0  0  0  0  0  0  0  0  0
  1  2  1  0  0  0  0
  2  3  4  0  0  0  0
  3  4  2  0  0  0  0
  2  5  1  0  0  0  0
  4  6  4  0  0  0  0
  5  6  4  0  0  0  0
  6  7  4  0  0  0  0
  7  8  4  0  0  0  0
  8  9  4  0  0  0  0
  9 10  1  0  0  0  0
  5 11  4  0  0  0  0
  9 11  4  0  0  0  0
  1 12  1  0  0  0  0
  1 13  1  0  0  0  0
  1 14  1  0  0  0  0
  3 15  1  0  0  0  0
  7 16  1  0  0  0  0
  8 17  1  0  0  0  0
 10 18  1  0  0  0  0
 10 19  1  0  0  0  0
 10 20  1  0  0  0  0
 11 21  1  0  0  0  0
M  END
