
  xtb     02012213453D
 xtb: 6.4.1 (23d549d)
 19 19  0     0  0            999 V2000
    1.0779   -0.0432    0.1107 c   0  0  0  0  0  0  0  0  0  0  0  0
    2.5698   -0.0370   -0.0155 c   0  0  0  0  0  0  0  0  0  0  0  0
    3.2972    1.1597   -0.0388 c   0  0  0  0  0  0  0  0  0  0  0  0
    2.6442    2.4094    0.0471 c   0  0  0  0  0  0  0  0  0  0  0  0
    2.1329    3.4342    0.1144 n   0  0  0  0  0  0  0  0  0  0  0  0
    4.6887    1.1382   -0.1499 c   0  0  0  0  0  0  0  0  0  0  0  0
    5.3569   -0.0650   -0.2374 c   0  0  0  0  0  0  0  0  0  0  0  0
    4.6547   -1.2656   -0.2174 c   0  0  0  0  0  0  0  0  0  0  0  0
    5.3652   -2.5800   -0.3068 c   0  0  0  0  0  0  0  0  0  0  0  0
    3.2700   -1.2299   -0.1066 c   0  0  0  0  0  0  0  0  0  0  0  0
    0.6763    0.9669    0.0914 h   0  0  0  0  0  0  0  0  0  0  0  0
    0.7843   -0.5154    1.0483 h   0  0  0  0  0  0  0  0  0  0  0  0
    0.6321   -0.6151   -0.7022 h   0  0  0  0  0  0  0  0  0  0  0  0
    5.2323    2.0716   -0.1668 h   0  0  0  0  0  0  0  0  0  0  0  0
    6.4336   -0.0741   -0.3229 h   0  0  0  0  0  0  0  0  0  0  0  0
    6.4311   -2.4383   -0.4651 h   0  0  0  0  0  0  0  0  0  0  0  0
    4.9647   -3.1739   -1.1271 h   0  0  0  0  0  0  0  0  0  0  0  0
    5.2234   -3.1474    0.6126 h   0  0  0  0  0  0  0  0  0  0  0  0
    2.7187   -2.1600   -0.0908 h   0  0  0  0  0  0  0  0  0  0  0  0
  1  2  1  0  0  0  0
  2  3  4  0  0  0  0
  3  4  1  0  0  0  0
  4  5  3  0  0  0  0
  3  6  4  0  0  0  0
  6  7  4  0  0  0  0
  7  8  4  0  0  0  0
  8  9  1  0  0  0  0
  2 10  4  0  0  0  0
  8 10  4  0  0  0  0
  1 11  1  0  0  0  0
  1 12  1  0  0  0  0
  1 13  1  0  0  0  0
  6 14  1  0  0  0  0
  7 15  1  0  0  0  0
  9 16  1  0  0  0  0
  9 17  1  0  0  0  0
  9 18  1  0  0  0  0
 10 19  1  0  0  0  0
M  END
