21

C          2.06255        1.02199       -1.07989
O          2.22230        0.19470        0.01240
C          2.97210        0.46500        1.11490
C          2.64310       -0.04130        2.38820
C          3.45120        0.26970        3.49040
C          3.13120       -0.25220        4.85660
N          4.54520        1.05780        3.32240
C          4.89030        1.56170        2.10970
C          4.11290        1.27740        0.97730
C          4.49610        1.83560       -0.36470
H          1.39362        0.52752       -1.81364
H          3.04404        1.20913       -1.56527
H          1.59931        1.98296       -0.77016
H          1.77300       -0.66910        2.52750
H          2.21550       -0.88110        4.85090
H          2.97070        0.59990        5.54970
H          3.97920       -0.86580        5.22590
H          5.77190        2.18450        2.03060
H          5.41650        2.45460       -0.30300
H          3.67320        2.47120       -0.75410
H          4.68190        1.00360       -1.07620
21

C          2.69043        0.10529       -1.28216
O          2.22230        0.19470        0.01240
C          2.97210        0.46500        1.11490
C          2.64310       -0.04130        2.38820
C          3.45120        0.26970        3.49040
C          3.13120       -0.25220        4.85660
N          4.54520        1.05780        3.32240
C          4.89030        1.56170        2.10970
C          4.11290        1.27740        0.97730
C          4.49610        1.83560       -0.36470
H          1.84199       -0.12428       -1.95877
H          3.43905       -0.71139       -1.36306
H          3.14182        1.07070       -1.59555
H          1.77300       -0.66910        2.52750
H          2.21550       -0.88110        4.85090
H          2.97070        0.59990        5.54970
H          3.97920       -0.86580        5.22590
H          5.77190        2.18450        2.03060
H          5.41650        2.45460       -0.30300
H          3.67320        2.47120       -0.75410
H          4.68190        1.00360       -1.07620
21

C          2.47939        0.63655       -1.26888
O          2.22230        0.19470        0.01240
C          2.97210        0.46500        1.11490
C          2.64310       -0.04130        2.38820
C          3.45120        0.26970        3.49040
C          3.13120       -0.25220        4.85660
N          4.54520        1.05780        3.32240
C          4.89030        1.56170        2.10970
C          4.11290        1.27740        0.97730
C          4.49610        1.83560       -0.36470
H          1.69096        0.25377       -1.94875
H          3.46278        0.25374       -1.61582
H          2.46735        1.74682       -1.30261
H          1.77300       -0.66910        2.52750
H          2.21550       -0.88110        4.85090
H          2.97070        0.59990        5.54970
H          3.97920       -0.86580        5.22590
H          5.77190        2.18450        2.03060
H          5.41650        2.45460       -0.30300
H          3.67320        2.47120       -0.75410
H          4.68190        1.00360       -1.07620
21

C          0.86490       -0.05077       -0.00237
O          2.22230        0.19470        0.01240
C          2.97210        0.46500        1.11490
C          2.64310       -0.04130        2.38820
C          3.45120        0.26970        3.49040
C          3.13120       -0.25220        4.85660
N          4.54520        1.05780        3.32240
C          4.89030        1.56170        2.10970
C          4.11290        1.27740        0.97730
C          4.49610        1.83560       -0.36470
H          0.54252       -0.23917       -1.04685
H          0.31204        0.83125        0.38538
H          0.62966       -0.94859        0.60802
H          1.77300       -0.66910        2.52750
H          2.21550       -0.88110        4.85090
H          2.97070        0.59990        5.54970
H          3.97920       -0.86580        5.22590
H          5.77190        2.18450        2.03060
H          5.41650        2.45460       -0.30300
H          3.67320        2.47120       -0.75410
H          4.68190        1.00360       -1.07620
21

C          1.47952       -0.94812       -0.20037
O          2.22230        0.19470        0.01240
C          2.97210        0.46500        1.11490
C          2.64310       -0.04130        2.38820
C          3.45120        0.26970        3.49040
C          3.13120       -0.25220        4.85660
N          4.54520        1.05780        3.32240
C          4.89030        1.56170        2.10970
C          4.11290        1.27740        0.97730
C          4.49610        1.83560       -0.36470
H          0.98143       -0.87720       -1.18892
H          0.69871       -1.04873        0.58332
H          2.13960       -1.84158       -0.19994
H          1.77300       -0.66910        2.52750
H          2.21550       -0.88110        4.85090
H          2.97070        0.59990        5.54970
H          3.97920       -0.86580        5.22590
H          5.77190        2.18450        2.03060
H          5.41650        2.45460       -0.30300
H          3.67320        2.47120       -0.75410
H          4.68190        1.00360       -1.07620
21

C          1.08119       -0.57980       -0.01976
O          2.22230        0.19470        0.01240
C          2.97210        0.46500        1.11490
C          2.64310       -0.04130        2.38820
C          3.45120        0.26970        3.49040
C          3.13120       -0.25220        4.85660
N          4.54520        1.05780        3.32240
C          4.89030        1.56170        2.10970
C          4.11290        1.27740        0.97730
C          4.49610        1.83560       -0.36470
H          0.69729       -0.61561       -1.05981
H          0.29857       -0.13577        0.63163
H          1.31011       -1.61594        0.30886
H          1.77300       -0.66910        2.52750
H          2.21550       -0.88110        4.85090
H          2.97070        0.59990        5.54970
H          3.97920       -0.86580        5.22590
H          5.77190        2.18450        2.03060
H          5.41650        2.45460       -0.30300
H          3.67320        2.47120       -0.75410
H          4.68190        1.00360       -1.07620
