
 OpenBabel02012214053D

 21 21  0  0  0  0  0  0  0  0999 V2000
    1.0728   -0.5674   -0.0171 C   0  0  0  0  0  0  0  0  0  0  0  0
    2.2223    0.1947    0.0124 O   0  0  0  0  0  0  0  0  0  0  0  0
    2.9721    0.4650    1.1149 C   0  0  0  0  0  0  0  0  0  0  0  0
    2.6431   -0.0413    2.3882 C   0  0  0  0  0  0  0  0  0  0  0  0
    3.4512    0.2697    3.4904 C   0  0  0  0  0  0  0  0  0  0  0  0
    3.1312   -0.2522    4.8566 C   0  0  0  0  0  0  0  0  0  0  0  0
    4.5452    1.0578    3.3224 N   0  0  0  0  0  0  0  0  0  0  0  0
    4.8903    1.5617    2.1097 C   0  0  0  0  0  0  0  0  0  0  0  0
    4.1129    1.2774    0.9773 C   0  0  0  0  0  0  0  0  0  0  0  0
    4.4961    1.8356   -0.3647 C   0  0  0  0  0  0  0  0  0  0  0  0
    0.6913   -0.6068   -1.0579 H   0  0  0  0  0  0  0  0  0  0  0  0
    0.2934   -0.1099    0.6288 H   0  0  0  0  0  0  0  0  0  0  0  0
    1.2894   -1.6035    0.3199 H   0  0  0  0  0  0  0  0  0  0  0  0
    1.7730   -0.6691    2.5275 H   0  0  0  0  0  0  0  0  0  0  0  0
    2.2155   -0.8811    4.8509 H   0  0  0  0  0  0  0  0  0  0  0  0
    2.9707    0.5999    5.5497 H   0  0  0  0  0  0  0  0  0  0  0  0
    3.9792   -0.8658    5.2259 H   0  0  0  0  0  0  0  0  0  0  0  0
    5.7719    2.1845    2.0306 H   0  0  0  0  0  0  0  0  0  0  0  0
    5.4165    2.4546   -0.3030 H   0  0  0  0  0  0  0  0  0  0  0  0
    3.6732    2.4712   -0.7541 H   0  0  0  0  0  0  0  0  0  0  0  0
    4.6819    1.0036   -1.0762 H   0  0  0  0  0  0  0  0  0  0  0  0
  1  2  1  0  0  0  0
  1 11  1  0  0  0  0
  1 12  1  0  0  0  0
  1 13  1  0  0  0  0
  2  3  1  0  0  0  0
  3  4  1  0  0  0  0
  3  9  2  0  0  0  0
  4  5  2  0  0  0  0
  4 14  1  0  0  0  0
  5  6  1  0  0  0  0
  5  7  1  0  0  0  0
  6 15  1  0  0  0  0
  6 16  1  0  0  0  0
  6 17  1  0  0  0  0
  7  8  2  0  0  0  0
  8  9  1  0  0  0  0
  8 18  1  0  0  0  0
  9 10  1  0  0  0  0
 10 19  1  0  0  0  0
 10 20  1  0  0  0  0
 10 21  1  0  0  0  0
M  END
