52

C         -0.04400       -2.78360       -0.01720
C          0.01190       -1.25930        0.01060
C          1.15580       -0.54160        0.47770
C          2.32560       -1.19900        0.94620
C          3.42590       -0.48290        1.40970
C          3.39910        0.90090        1.43200
C          2.27480        1.58060        0.98240
C          1.14180        0.88610        0.48700
C          0.00520        1.60120        0.02000
C         -0.00110        3.11250        0.02420
C          1.21335        3.83607       -0.12698
C          2.44172        3.15031       -0.30507
C          3.64009        3.83846       -0.44275
C          3.65006        5.22237       -0.41555
C          2.46100        5.93057       -0.26002
C          1.21399        5.26395       -0.11593
C         -0.01795        5.97261        0.03167
C         -0.09010        7.49674        0.04203
C         -1.23256        5.24236        0.17523
C         -2.47834        5.90833        0.32285
C         -3.66565        5.19832        0.47619
C         -3.64993        3.81264        0.49574
C         -2.44773        3.12779        0.35418
C         -1.22213        3.81973        0.17928
C         -1.12650        0.88480       -0.45160
C         -2.26720        1.56820       -0.94400
C         -3.38450        0.87460       -1.39750
C         -3.39480       -0.51110       -1.38160
C         -2.28480       -1.21270       -0.91990
C         -1.12710       -0.53740       -0.44910
H          0.84080       -3.32580        0.33980
H         -0.20420       -3.12720       -1.06100
H         -0.88370       -3.13240        0.62050
H          2.44060       -2.26550        0.97550
H          4.30540       -1.00860        1.76000
H          4.25520        1.45200        1.79980
H          2.31060        2.65920        1.02990
H          2.49686        2.07197       -0.34036
H          4.56688        3.29389       -0.57108
H          4.58697        5.75474       -0.52189
H          2.57222        6.99738       -0.25868
H          0.85363        8.04551       -0.06910
H         -0.52281        7.83817        1.00612
H         -0.73416        7.83991       -0.79523
H         -2.56225        6.98510        0.32445
H         -4.60326        5.72836        0.58579
H         -4.57457        3.26401        0.62174
H         -2.49719        2.04903        0.38368
H         -2.31540        2.64640       -0.98650
H         -4.24720        1.41670       -1.76350
H         -4.26630       -1.04790       -1.73430
H         -2.35750       -2.28980       -0.94260
