
  xtb     02032210573D
 xtb: 6.4.1 (23d549d)
 23 23  0     0  0            999 V2000
    1.8428   -0.5422   -0.5124 c   0  0  0  0  0  0  0  0  0  0  0  0
    2.7302    0.3181   -0.0285 c   0  0  0  0  0  0  0  0  0  0  0  0
    3.3815    0.2457    1.2734 c   0  0  0  0  0  0  0  0  0  0  0  0
    4.4995    1.0428    1.5289 c   0  0  0  0  0  0  0  0  0  0  0  0
    5.1382    0.9985    2.7480 c   0  0  0  0  0  0  0  0  0  0  0  0
    4.6834    0.1813    3.7845 c   0  0  0  0  0  0  0  0  0  0  0  0
    5.3871    0.2465    5.0695 c   0  0  0  0  0  0  0  0  0  0  0  0
    4.8152    0.4252    6.2497 c   0  0  0  0  0  0  0  0  0  0  0  0
    3.5790   -0.6371    3.5205 c   0  0  0  0  0  0  0  0  0  0  0  0
    3.0593   -1.6160    4.5385 c   0  0  0  0  0  0  0  0  0  0  0  0
    4.0236   -2.2180    5.2514 f   0  0  0  0  0  0  0  0  0  0  0  0
    2.2193   -1.0532    5.4322 f   0  0  0  0  0  0  0  0  0  0  0  0
    2.3559   -2.6126    3.9711 f   0  0  0  0  0  0  0  0  0  0  0  0
    2.9405   -0.5980    2.2896 c   0  0  0  0  0  0  0  0  0  0  0  0
    1.4129   -0.4093   -1.4903 h   0  0  0  0  0  0  0  0  0  0  0  0
    1.5141   -1.4090    0.0336 h   0  0  0  0  0  0  0  0  0  0  0  0
    3.0383    1.1589   -0.6375 h   0  0  0  0  0  0  0  0  0  0  0  0
    4.8719    1.6973    0.7541 h   0  0  0  0  0  0  0  0  0  0  0  0
    6.0011    1.6235    2.9260 h   0  0  0  0  0  0  0  0  0  0  0  0
    6.4672    0.2119    4.9913 h   0  0  0  0  0  0  0  0  0  0  0  0
    3.7491    0.5154    6.3695 h   0  0  0  0  0  0  0  0  0  0  0  0
    5.4026    0.5017    7.1480 h   0  0  0  0  0  0  0  0  0  0  0  0
    2.0854   -1.2333    2.1236 h   0  0  0  0  0  0  0  0  0  0  0  0
  1  2  2  0  0  0  0
  2  3  1  0  0  0  0
  3  4  4  0  0  0  0
  4  5  4  0  0  0  0
  5  6  4  0  0  0  0
  6  7  1  0  0  0  0
  7  8  2  0  0  0  0
  6  9  4  0  0  0  0
  9 10  1  0  0  0  0
 10 11  1  0  0  0  0
 10 12  1  0  0  0  0
 10 13  1  0  0  0  0
  3 14  4  0  0  0  0
  9 14  4  0  0  0  0
  1 15  1  0  0  0  0
  1 16  1  0  0  0  0
  2 17  1  0  0  0  0
  4 18  1  0  0  0  0
  5 19  1  0  0  0  0
  7 20  1  0  0  0  0
  8 21  1  0  0  0  0
  8 22  1  0  0  0  0
 14 23  1  0  0  0  0
M  END
