
  xtb     02012213513D
 xtb: 6.4.1 (23d549d)
 17 17  0     0  0            999 V2000
   -2.3892    1.1285    0.0125 c   0  0  0  0  0  0  0  0  0  0  0  0
   -1.1447    0.2955    0.0111 c   0  0  0  0  0  0  0  0  0  0  0  0
   -1.1930   -1.0952    0.0053 c   0  0  0  0  0  0  0  0  0  0  0  0
   -0.0012   -1.7995    0.0041 c   0  0  0  0  0  0  0  0  0  0  0  0
    1.1929   -1.0993    0.0088 c   0  0  0  0  0  0  0  0  0  0  0  0
    1.1494    0.2916    0.0145 c   0  0  0  0  0  0  0  0  0  0  0  0
    2.3968    1.1203    0.0198 c   0  0  0  0  0  0  0  0  0  0  0  0
    0.0035    0.9580    0.0155 n   0  0  0  0  0  0  0  0  0  0  0  0
   -3.2785    0.5045    0.0101 h   0  0  0  0  0  0  0  0  0  0  0  0
   -2.3995    1.7745   -0.8631 h   0  0  0  0  0  0  0  0  0  0  0  0
   -2.4007    1.7697    0.8917 h   0  0  0  0  0  0  0  0  0  0  0  0
   -2.1415   -1.6105    0.0017 h   0  0  0  0  0  0  0  0  0  0  0  0
   -0.0031   -2.8806   -0.0003 h   0  0  0  0  0  0  0  0  0  0  0  0
    2.1397   -1.6179    0.0081 h   0  0  0  0  0  0  0  0  0  0  0  0
    3.2839    0.4932    0.0181 h   0  0  0  0  0  0  0  0  0  0  0  0
    2.4088    1.7598    0.9002 h   0  0  0  0  0  0  0  0  0  0  0  0
    2.4110    1.7678   -0.8546 h   0  0  0  0  0  0  0  0  0  0  0  0
  1  2  1  0  0  0  0
  2  3  4  0  0  0  0
  3  4  4  0  0  0  0
  4  5  4  0  0  0  0
  5  6  4  0  0  0  0
  6  7  1  0  0  0  0
  2  8  4  0  0  0  0
  6  8  4  0  0  0  0
  1  9  1  0  0  0  0
  1 10  1  0  0  0  0
  1 11  1  0  0  0  0
  3 12  1  0  0  0  0
  4 13  1  0  0  0  0
  5 14  1  0  0  0  0
  7 15  1  0  0  0  0
  7 16  1  0  0  0  0
  7 17  1  0  0  0  0
M  END
