
  xtb     02032211353D
 xtb: 6.4.1 (23d549d)
 53 53  0     0  0            999 V2000
    0.3221    4.0882    1.9815 C   0  0  0  0  0  0  0  0  0  0  0  0
    1.3821    3.3937    1.5772 C   0  0  0  0  0  0  0  0  0  0  0  0
    1.3675    2.3886    0.5512 C   0  0  0  0  0  0  0  0  0  0  0  0
    2.4264    1.6360    0.1161 C   0  0  0  0  0  0  0  0  0  0  0  0
    2.1079    0.7171   -0.9039 C   0  0  0  0  0  0  0  0  0  0  0  0
    3.1320   -0.2068   -1.4882 C   0  0  0  0  0  0  0  0  0  0  0  0
    3.7998   -1.0888   -0.4234 C   0  0  0  0  0  0  0  0  0  0  0  0
    2.8067   -1.8305    0.4716 C   0  0  0  0  0  0  0  0  0  0  0  0
    1.8910   -2.7778   -0.2993 C   0  0  0  0  0  0  0  0  0  0  0  0
    1.0700   -3.6908    0.6126 C   0  0  0  0  0  0  0  0  0  0  0  0
    0.1676   -2.9567    1.6061 C   0  0  0  0  0  0  0  0  0  0  0  0
   -0.8215   -2.0004    0.9429 C   0  0  0  0  0  0  0  0  0  0  0  0
   -1.8359   -1.4603    1.9493 C   0  0  0  0  0  0  0  0  0  0  0  0
   -2.6956   -0.3258    1.3927 C   0  0  0  0  0  0  0  0  0  0  0  0
   -3.5854   -0.7520    0.2279 C   0  0  0  0  0  0  0  0  0  0  0  0
   -4.4979    0.3830   -0.2308 C   0  0  0  0  0  0  0  0  0  0  0  0
   -5.3420   -0.0183   -1.4342 C   0  0  0  0  0  0  0  0  0  0  0  0
    0.7779    0.7775   -1.2637 C   0  0  0  0  0  0  0  0  0  0  0  0
    0.0813    0.0250   -2.2711 C   0  0  0  0  0  0  0  0  0  0  0  0
   -1.2132    0.1479   -2.5535 C   0  0  0  0  0  0  0  0  0  0  0  0
   -0.0742    1.9728   -0.3217 S   0  0  0  0  0  0  0  0  0  0  0  0
    0.3933    4.8304    2.7564 H   0  0  0  0  0  0  0  0  0  0  0  0
   -0.6508    3.9309    1.5455 H   0  0  0  0  0  0  0  0  0  0  0  0
    2.3525    3.5628    2.0275 H   0  0  0  0  0  0  0  0  0  0  0  0
    3.4169    1.7435    0.5230 H   0  0  0  0  0  0  0  0  0  0  0  0
    3.9074    0.3918   -1.9767 H   0  0  0  0  0  0  0  0  0  0  0  0
    2.6799   -0.8397   -2.2504 H   0  0  0  0  0  0  0  0  0  0  0  0
    4.4371   -0.4676    0.2097 H   0  0  0  0  0  0  0  0  0  0  0  0
    4.4443   -1.8111   -0.9302 H   0  0  0  0  0  0  0  0  0  0  0  0
    2.2044   -1.0978    1.0108 H   0  0  0  0  0  0  0  0  0  0  0  0
    3.3715   -2.4051    1.2103 H   0  0  0  0  0  0  0  0  0  0  0  0
    2.5008   -3.4065   -0.9544 H   0  0  0  0  0  0  0  0  0  0  0  0
    1.2120   -2.2028   -0.9280 H   0  0  0  0  0  0  0  0  0  0  0  0
    1.7498   -4.3368    1.1747 H   0  0  0  0  0  0  0  0  0  0  0  0
    0.4493   -4.3351   -0.0156 H   0  0  0  0  0  0  0  0  0  0  0  0
    0.7800   -2.4044    2.3215 H   0  0  0  0  0  0  0  0  0  0  0  0
   -0.3931   -3.7059    2.1718 H   0  0  0  0  0  0  0  0  0  0  0  0
   -1.3409   -2.5256    0.1395 H   0  0  0  0  0  0  0  0  0  0  0  0
   -0.2848   -1.1599    0.5011 H   0  0  0  0  0  0  0  0  0  0  0  0
   -1.2957   -1.0867    2.8234 H   0  0  0  0  0  0  0  0  0  0  0  0
   -2.4821   -2.2749    2.2860 H   0  0  0  0  0  0  0  0  0  0  0  0
   -2.0452    0.4886    1.0661 H   0  0  0  0  0  0  0  0  0  0  0  0
   -3.3280    0.0599    2.1969 H   0  0  0  0  0  0  0  0  0  0  0  0
   -4.1960   -1.6064    0.5304 H   0  0  0  0  0  0  0  0  0  0  0  0
   -2.9623   -1.0653   -0.6113 H   0  0  0  0  0  0  0  0  0  0  0  0
   -3.8878    1.2523   -0.4877 H   0  0  0  0  0  0  0  0  0  0  0  0
   -5.1542    0.6757    0.5922 H   0  0  0  0  0  0  0  0  0  0  0  0
   -4.7044   -0.2896   -2.2730 H   0  0  0  0  0  0  0  0  0  0  0  0
   -5.9858    0.8020   -1.7436 H   0  0  0  0  0  0  0  0  0  0  0  0
   -5.9689   -0.8738   -1.1917 H   0  0  0  0  0  0  0  0  0  0  0  0
    0.6834   -0.6803   -2.8291 H   0  0  0  0  0  0  0  0  0  0  0  0
   -1.8409    0.8458   -2.0257 H   0  0  0  0  0  0  0  0  0  0  0  0
   -1.6805   -0.4417   -3.3225 H   0  0  0  0  0  0  0  0  0  0  0  0
  1  2  2  0  0  0  0
  2  3  1  0  0  0  0
  3  4  2  0  0  0  0
  4  5  4  0  0  0  0
  5  6  1  0  0  0  0
  6  7  1  0  0  0  0
  7  8  1  0  0  0  0
  8  9  1  0  0  0  0
  9 10  1  0  0  0  0
 10 11  1  0  0  0  0
 11 12  1  0  0  0  0
 12 13  1  0  0  0  0
 13 14  1  0  0  0  0
 14 15  1  0  0  0  0
 15 16  1  0  0  0  0
 16 17  1  0  0  0  0
  5 18  4  0  0  0  0
 18 19  1  0  0  0  0
 19 20  2  0  0  0  0
  3 21  1  0  0  0  0
 18 21  1  0  0  0  0
  1 22  1  0  0  0  0
  1 23  1  0  0  0  0
  2 24  1  0  0  0  0
  4 25  1  0  0  0  0
  6 26  1  0  0  0  0
  6 27  1  0  0  0  0
  7 28  1  0  0  0  0
  7 29  1  0  0  0  0
  8 30  1  0  0  0  0
  8 31  1  0  0  0  0
  9 32  1  0  0  0  0
  9 33  1  0  0  0  0
 10 34  1  0  0  0  0
 10 35  1  0  0  0  0
 11 36  1  0  0  0  0
 11 37  1  0  0  0  0
 12 38  1  0  0  0  0
 12 39  1  0  0  0  0
 13 40  1  0  0  0  0
 13 41  1  0  0  0  0
 14 42  1  0  0  0  0
 14 43  1  0  0  0  0
 15 44  1  0  0  0  0
 15 45  1  0  0  0  0
 16 46  1  0  0  0  0
 16 47  1  0  0  0  0
 17 48  1  0  0  0  0
 17 49  1  0  0  0  0
 17 50  1  0  0  0  0
 19 51  1  0  0  0  0
 20 52  1  0  0  0  0
 20 53  1  0  0  0  0
M  END
