
  xtb     02032211343D
 xtb: 6.4.1 (23d549d)
 17 17  0     0  0            999 V2000
   -2.2222   -2.2512   -0.5062 C   0  0  0  0  0  0  0  0  0  0  0  0
   -1.2659   -1.5488    0.0884 C   0  0  0  0  0  0  0  0  0  0  0  0
   -1.1672   -0.1013    0.0619 C   0  0  0  0  0  0  0  0  0  0  0  0
   -2.2776    0.7677   -0.1211 C   0  0  0  0  0  0  0  0  0  0  0  0
   -1.9627    2.0785    0.0019 C   0  0  0  0  0  0  0  0  0  0  0  0
   -0.2973    2.3193    0.3456 S   0  0  0  0  0  0  0  0  0  0  0  0
   -0.0076    0.6039    0.3127 C   0  0  0  0  0  0  0  0  0  0  0  0
    1.3446    0.1477    0.5154 C   0  0  0  0  0  0  0  0  0  0  0  0
    1.9225   -0.9001   -0.0573 C   0  0  0  0  0  0  0  0  0  0  0  0
    1.3960   -1.7287   -0.9498 F   0  0  0  0  0  0  0  0  0  0  0  0
    3.1810   -1.2609    0.1860 F   0  0  0  0  0  0  0  0  0  0  0  0
   -2.2548   -3.3241   -0.4361 H   0  0  0  0  0  0  0  0  0  0  0  0
   -2.9912   -1.7870   -1.1000 H   0  0  0  0  0  0  0  0  0  0  0  0
   -0.4961   -2.0585    0.6523 H   0  0  0  0  0  0  0  0  0  0  0  0
   -3.2747    0.4149   -0.3111 H   0  0  0  0  0  0  0  0  0  0  0  0
   -2.6087    2.9295   -0.0844 H   0  0  0  0  0  0  0  0  0  0  0  0
    1.9751    0.7457    1.1576 H   0  0  0  0  0  0  0  0  0  0  0  0
  1  2  2  0  0  0  0
  2  3  1  0  0  0  0
  3  4  4  0  0  0  0
  4  5  2  0  0  0  0
  5  6  1  0  0  0  0
  3  7  4  0  0  0  0
  6  7  1  0  0  0  0
  7  8  1  0  0  0  0
  8  9  2  0  0  0  0
  9 10  1  0  0  0  0
  9 11  1  0  0  0  0
  1 12  1  0  0  0  0
  1 13  1  0  0  0  0
  2 14  1  0  0  0  0
  4 15  1  0  0  0  0
  5 16  1  0  0  0  0
  8 17  1  0  0  0  0
M  END
