
  xtb     02012213473D
 xtb: 6.4.1 (23d549d)
 24 24  0     0  0            999 V2000
    2.5027   -1.4431    0.0093 c   0  0  0  0  0  0  0  0  0  0  0  0
    1.2120   -0.6813    0.0083 c   0  0  0  0  0  0  0  0  0  0  0  0
    0.0003   -1.3526    0.0070 c   0  0  0  0  0  0  0  0  0  0  0  0
   -1.2223   -0.6933    0.0069 c   0  0  0  0  0  0  0  0  0  0  0  0
   -2.4923   -1.4950    0.0043 c   0  0  0  0  0  0  0  0  0  0  0  0
   -1.2276    0.7007    0.0092 c   0  0  0  0  0  0  0  0  0  0  0  0
   -2.4910    1.5140    0.0114 c   0  0  0  0  0  0  0  0  0  0  0  0
   -0.0122    1.3737    0.0097 c   0  0  0  0  0  0  0  0  0  0  0  0
    1.2059    0.7155    0.0089 c   0  0  0  0  0  0  0  0  0  0  0  0
    2.4893    1.4895    0.0083 c   0  0  0  0  0  0  0  0  0  0  0  0
    2.3183   -2.5144    0.0092 h   0  0  0  0  0  0  0  0  0  0  0  0
    3.0948   -1.1936    0.8897 h   0  0  0  0  0  0  0  0  0  0  0  0
    3.0965   -1.1936   -0.8699 h   0  0  0  0  0  0  0  0  0  0  0  0
    0.0065   -2.4347    0.0059 h   0  0  0  0  0  0  0  0  0  0  0  0
   -2.2675   -2.5588    0.0015 h   0  0  0  0  0  0  0  0  0  0  0  0
   -3.0906   -1.2705   -0.8784 h   0  0  0  0  0  0  0  0  0  0  0  0
   -3.0916   -1.2754    0.8875 h   0  0  0  0  0  0  0  0  0  0  0  0
   -3.3791    0.8917    0.0108 h   0  0  0  0  0  0  0  0  0  0  0  0
   -2.5208    2.1582   -0.8671 h   0  0  0  0  0  0  0  0  0  0  0  0
   -2.5195    2.1548    0.8923 h   0  0  0  0  0  0  0  0  0  0  0  0
   -0.0231    2.4558    0.0107 h   0  0  0  0  0  0  0  0  0  0  0  0
    2.2942    2.5589    0.0083 h   0  0  0  0  0  0  0  0  0  0  0  0
    3.0842    1.2457   -0.8718 h   0  0  0  0  0  0  0  0  0  0  0  0
    3.0852    1.2459    0.8878 h   0  0  0  0  0  0  0  0  0  0  0  0
  1  2  1  0  0  0  0
  2  3  4  0  0  0  0
  3  4  4  0  0  0  0
  4  5  1  0  0  0  0
  4  6  4  0  0  0  0
  6  7  1  0  0  0  0
  6  8  4  0  0  0  0
  2  9  4  0  0  0  0
  8  9  4  0  0  0  0
  9 10  1  0  0  0  0
  1 11  1  0  0  0  0
  1 12  1  0  0  0  0
  1 13  1  0  0  0  0
  3 14  1  0  0  0  0
  5 15  1  0  0  0  0
  5 16  1  0  0  0  0
  5 17  1  0  0  0  0
  7 18  1  0  0  0  0
  7 19  1  0  0  0  0
  7 20  1  0  0  0  0
  8 21  1  0  0  0  0
 10 22  1  0  0  0  0
 10 23  1  0  0  0  0
 10 24  1  0  0  0  0
M  END
