
  xtb     02032210563D
 xtb: 6.4.1 (23d549d)
 34 35  0     0  0            999 V2000
    1.6297    0.3669    0.9590 c   0  0  0  0  0  0  0  0  0  0  0  0
    2.5825    0.1440    0.0614 c   0  0  0  0  0  0  0  0  0  0  0  0
    3.0599    1.0736   -0.9541 c   0  0  0  0  0  0  0  0  0  0  0  0
    2.4875    2.3283   -1.1704 c   0  0  0  0  0  0  0  0  0  0  0  0
    2.9934    3.1637   -2.1446 c   0  0  0  0  0  0  0  0  0  0  0  0
    4.0717    2.7920   -2.9420 c   0  0  0  0  0  0  0  0  0  0  0  0
    4.5817    3.7084   -3.9788 c   0  0  0  0  0  0  0  0  0  0  0  0
    4.6662    3.2927   -5.3034 c   0  0  0  0  0  0  0  0  0  0  0  0
    5.1362    4.1310   -6.2934 c   0  0  0  0  0  0  0  0  0  0  0  0
    5.5461    5.4303   -5.9869 c   0  0  0  0  0  0  0  0  0  0  0  0
    6.0381    6.2855   -7.0593 c   0  0  0  0  0  0  0  0  0  0  0  0
    6.3553    7.5722   -6.9731 c   0  0  0  0  0  0  0  0  0  0  0  0
    5.4720    5.8475   -4.6618 c   0  0  0  0  0  0  0  0  0  0  0  0
    4.9927    5.0152   -3.6554 c   0  0  0  0  0  0  0  0  0  0  0  0
    4.8927    5.4927   -2.3637 n   0  0  0  0  0  0  0  0  0  0  0  0
    4.6553    1.5283   -2.7386 c   0  0  0  0  0  0  0  0  0  0  0  0
    5.6982    1.0879   -3.5288 n   0  0  0  0  0  0  0  0  0  0  0  0
    4.1405    0.6986   -1.7474 c   0  0  0  0  0  0  0  0  0  0  0  0
    1.3460   -0.3871    1.6734 h   0  0  0  0  0  0  0  0  0  0  0  0
    1.0964    1.2999    1.0236 h   0  0  0  0  0  0  0  0  0  0  0  0
    3.0822   -0.8180    0.0592 h   0  0  0  0  0  0  0  0  0  0  0  0
    1.6426    2.6504   -0.5832 h   0  0  0  0  0  0  0  0  0  0  0  0
    2.5363    4.1279   -2.3149 h   0  0  0  0  0  0  0  0  0  0  0  0
    4.3379    2.2941   -5.5537 h   0  0  0  0  0  0  0  0  0  0  0  0
    5.1825    3.7822   -7.3148 h   0  0  0  0  0  0  0  0  0  0  0  0
    6.1318    5.7885   -8.0180 h   0  0  0  0  0  0  0  0  0  0  0  0
    6.2743    8.1336   -6.0579 h   0  0  0  0  0  0  0  0  0  0  0  0
    6.7076    8.1209   -7.8299 h   0  0  0  0  0  0  0  0  0  0  0  0
    5.7956    6.8412   -4.3891 h   0  0  0  0  0  0  0  0  0  0  0  0
    5.4678    6.2880   -2.1391 h   0  0  0  0  0  0  0  0  0  0  0  0
    4.8189    4.7987   -1.6366 h   0  0  0  0  0  0  0  0  0  0  0  0
    6.2147    1.7993   -4.0217 h   0  0  0  0  0  0  0  0  0  0  0  0
    6.2553    0.3390   -3.1512 h   0  0  0  0  0  0  0  0  0  0  0  0
    4.6017   -0.2684   -1.5941 h   0  0  0  0  0  0  0  0  0  0  0  0
  1  2  2  0  0  0  0
  2  3  1  0  0  0  0
  3  4  4  0  0  0  0
  4  5  4  0  0  0  0
  5  6  4  0  0  0  0
  6  7  1  0  0  0  0
  7  8  4  0  0  0  0
  8  9  4  0  0  0  0
  9 10  4  0  0  0  0
 10 11  1  0  0  0  0
 11 12  2  0  0  0  0
 10 13  4  0  0  0  0
  7 14  4  0  0  0  0
 13 14  4  0  0  0  0
 14 15  1  0  0  0  0
  6 16  4  0  0  0  0
 16 17  1  0  0  0  0
  3 18  4  0  0  0  0
 16 18  4  0  0  0  0
  1 19  1  0  0  0  0
  1 20  1  0  0  0  0
  2 21  1  0  0  0  0
  4 22  1  0  0  0  0
  5 23  1  0  0  0  0
  8 24  1  0  0  0  0
  9 25  1  0  0  0  0
 11 26  1  0  0  0  0
 12 27  1  0  0  0  0
 12 28  1  0  0  0  0
 13 29  1  0  0  0  0
 15 30  1  0  0  0  0
 15 31  1  0  0  0  0
 17 32  1  0  0  0  0
 17 33  1  0  0  0  0
 18 34  1  0  0  0  0
M  END
