
  xtb     02032211343D
 xtb: 6.4.1 (23d549d)
 24 24  0     0  0            999 V2000
    4.3601   -1.2372   -0.1191 C   0  0  0  0  0  0  0  0  0  0  0  0
    3.1057   -1.6336    0.0568 C   0  0  0  0  0  0  0  0  0  0  0  0
    1.9114   -0.7950    0.0410 C   0  0  0  0  0  0  0  0  0  0  0  0
    0.6644   -1.4090    0.0475 C   0  0  0  0  0  0  0  0  0  0  0  0
   -0.5130   -0.6601    0.0251 C   0  0  0  0  0  0  0  0  0  0  0  0
   -1.7776   -1.3806    0.0279 C   0  0  0  0  0  0  0  0  0  0  0  0
   -3.0072   -0.8900   -0.0053 C   0  0  0  0  0  0  0  0  0  0  0  0
   -3.3842    0.3809   -0.0490 F   0  0  0  0  0  0  0  0  0  0  0  0
   -4.0955   -1.6600    0.0004 F   0  0  0  0  0  0  0  0  0  0  0  0
   -0.4275    0.7267    0.0040 C   0  0  0  0  0  0  0  0  0  0  0  0
    0.8170    1.3567    0.0055 C   0  0  0  0  0  0  0  0  0  0  0  0
    0.7786    2.7166   -0.0098 O   0  0  0  0  0  0  0  0  0  0  0  0
    1.9916    3.4287   -0.0112 C   0  0  0  0  0  0  0  0  0  0  0  0
    1.9796    0.5995    0.0234 C   0  0  0  0  0  0  0  0  0  0  0  0
    5.1761   -1.9388   -0.0946 H   0  0  0  0  0  0  0  0  0  0  0  0
    4.6311   -0.2113   -0.3011 H   0  0  0  0  0  0  0  0  0  0  0  0
    2.9093   -2.6866    0.2172 H   0  0  0  0  0  0  0  0  0  0  0  0
    0.6059   -2.4875    0.0644 H   0  0  0  0  0  0  0  0  0  0  0  0
   -1.7164   -2.4589    0.0593 H   0  0  0  0  0  0  0  0  0  0  0  0
   -1.3032    1.3523   -0.0099 H   0  0  0  0  0  0  0  0  0  0  0  0
    1.7140    4.4814   -0.0273 H   0  0  0  0  0  0  0  0  0  0  0  0
    2.5915    3.2007   -0.8984 H   0  0  0  0  0  0  0  0  0  0  0  0
    2.5797    3.2248    0.8896 H   0  0  0  0  0  0  0  0  0  0  0  0
    2.9446    1.0774    0.0339 H   0  0  0  0  0  0  0  0  0  0  0  0
  1  2  2  0  0  0  0
  2  3  1  0  0  0  0
  3  4  4  0  0  0  0
  4  5  4  0  0  0  0
  5  6  1  0  0  0  0
  6  7  2  0  0  0  0
  7  8  1  0  0  0  0
  7  9  1  0  0  0  0
  5 10  4  0  0  0  0
 10 11  4  0  0  0  0
 11 12  1  0  0  0  0
 12 13  1  0  0  0  0
  3 14  4  0  0  0  0
 11 14  4  0  0  0  0
  1 15  1  0  0  0  0
  1 16  1  0  0  0  0
  2 17  1  0  0  0  0
  4 18  1  0  0  0  0
  6 19  1  0  0  0  0
 10 20  1  0  0  0  0
 13 21  1  0  0  0  0
 13 22  1  0  0  0  0
 13 23  1  0  0  0  0
 14 24  1  0  0  0  0
M  END
