
  xtb     02032211353D
 xtb: 6.4.1 (23d549d)
 24 24  0     0  0            999 V2000
   -3.5803    1.3353    0.1093 C   0  0  0  0  0  0  0  0  0  0  0  0
   -2.9357    0.1800   -0.0080 C   0  0  0  0  0  0  0  0  0  0  0  0
   -1.4931   -0.0129   -0.0138 C   0  0  0  0  0  0  0  0  0  0  0  0
   -0.5752    1.0400   -0.0128 C   0  0  0  0  0  0  0  0  0  0  0  0
    0.7924    0.8217   -0.0187 C   0  0  0  0  0  0  0  0  0  0  0  0
    1.7161    1.8237   -0.0162 O   0  0  0  0  0  0  0  0  0  0  0  0
    1.2747    3.1587   -0.0186 C   0  0  0  0  0  0  0  0  0  0  0  0
    1.3038   -0.4969   -0.0229 C   0  0  0  0  0  0  0  0  0  0  0  0
    2.7439   -0.7039   -0.0312 C   0  0  0  0  0  0  0  0  0  0  0  0
    3.3745   -1.8627    0.1263 C   0  0  0  0  0  0  0  0  0  0  0  0
    0.3924   -1.5477   -0.0305 C   0  0  0  0  0  0  0  0  0  0  0  0
   -0.9626   -1.3030   -0.0272 C   0  0  0  0  0  0  0  0  0  0  0  0
   -1.8007   -2.3678   -0.0366 F   0  0  0  0  0  0  0  0  0  0  0  0
   -4.6557    1.3736    0.1051 H   0  0  0  0  0  0  0  0  0  0  0  0
   -3.0778    2.2812    0.2187 H   0  0  0  0  0  0  0  0  0  0  0  0
   -3.5088   -0.7331   -0.1011 H   0  0  0  0  0  0  0  0  0  0  0  0
   -0.9604    2.0455   -0.0139 H   0  0  0  0  0  0  0  0  0  0  0  0
    2.1795    3.7649   -0.0189 H   0  0  0  0  0  0  0  0  0  0  0  0
    0.6869    3.3908    0.8753 H   0  0  0  0  0  0  0  0  0  0  0  0
    0.6872    3.3881   -0.9134 H   0  0  0  0  0  0  0  0  0  0  0  0
    3.3202    0.1998   -0.1697 H   0  0  0  0  0  0  0  0  0  0  0  0
    2.8597   -2.7940    0.2886 H   0  0  0  0  0  0  0  0  0  0  0  0
    4.4491   -1.9175    0.1051 H   0  0  0  0  0  0  0  0  0  0  0  0
    0.7332   -2.5697   -0.0484 H   0  0  0  0  0  0  0  0  0  0  0  0
  1  2  2  0  0  0  0
  2  3  1  0  0  0  0
  3  4  4  0  0  0  0
  4  5  4  0  0  0  0
  5  6  1  0  0  0  0
  6  7  1  0  0  0  0
  5  8  4  0  0  0  0
  8  9  1  0  0  0  0
  9 10  2  0  0  0  0
  8 11  4  0  0  0  0
  3 12  4  0  0  0  0
 11 12  4  0  0  0  0
 12 13  1  0  0  0  0
  1 14  1  0  0  0  0
  1 15  1  0  0  0  0
  2 16  1  0  0  0  0
  4 17  1  0  0  0  0
  7 18  1  0  0  0  0
  7 19  1  0  0  0  0
  7 20  1  0  0  0  0
  9 21  1  0  0  0  0
 10 22  1  0  0  0  0
 10 23  1  0  0  0  0
 11 24  1  0  0  0  0
M  END
