20

C          0.96130       -0.10530       -0.10050
C          2.45500       -0.04900       -0.02480
C          3.12940        1.17240        0.07120
C          4.52150        1.18130        0.14430
C          5.24360       -0.02220        0.11930
C          6.74620        0.01810        0.20230
C          4.52500       -1.23880        0.01650
C          5.19040       -2.58610       -0.02500
N          3.16520       -1.20750       -0.04970
H          0.51240        0.91060       -0.07720
H          0.56970       -0.68530        0.76120
H          0.65690       -0.60560       -1.04340
H          2.58540        2.10850        0.09230
H          5.03530        2.13180        0.22090
H          7.12570        1.05880        0.28120
H          7.18710       -0.43950       -0.70780
H          7.08720       -0.53820        1.10140
H          6.29470       -2.53440        0.03020
H          4.91830       -3.09790       -0.97190
H          4.83170       -3.19830        0.82880
