
 OpenBabel02012214103D

 20 20  0  0  0  0  0  0  0  0999 V2000
    0.9892   -0.1223   -0.0941 C   0  0  0  0  0  0  0  0  0  0  0  0
    2.4857   -0.0514   -0.0445 C   0  0  0  0  0  0  0  0  0  0  0  0
    3.1349    1.1701    0.0572 C   0  0  0  0  0  0  0  0  0  0  0  0
    4.5224    1.1821    0.1464 C   0  0  0  0  0  0  0  0  0  0  0  0
    5.2397   -0.0197    0.1303 C   0  0  0  0  0  0  0  0  0  0  0  0
    6.7354    0.0095    0.2293 C   0  0  0  0  0  0  0  0  0  0  0  0
    4.5116   -1.2076    0.0075 C   0  0  0  0  0  0  0  0  0  0  0  0
    5.1610   -2.5597   -0.0560 C   0  0  0  0  0  0  0  0  0  0  0  0
    3.1542   -1.2268   -0.0696 N   0  0  0  0  0  0  0  0  0  0  0  0
    0.5426    0.8650   -0.2467 H   0  0  0  0  0  0  0  0  0  0  0  0
    0.6075   -0.5322    0.8455 H   0  0  0  0  0  0  0  0  0  0  0  0
    0.6705   -0.7677   -0.9191 H   0  0  0  0  0  0  0  0  0  0  0  0
    2.5789    2.1011    0.0696 H   0  0  0  0  0  0  0  0  0  0  0  0
    5.0393    2.1343    0.2312 H   0  0  0  0  0  0  0  0  0  0  0  0
    7.1082    1.0271    0.3883 H   0  0  0  0  0  0  0  0  0  0  0  0
    7.1830   -0.3670   -0.6957 H   0  0  0  0  0  0  0  0  0  0  0  0
    7.0752   -0.5951    1.0763 H   0  0  0  0  0  0  0  0  0  0  0  0
    6.2526   -2.5164   -0.0420 H   0  0  0  0  0  0  0  0  0  0  0  0
    4.8637   -3.0644   -0.9808 H   0  0  0  0  0  0  0  0  0  0  0  0
    4.8370   -3.1663    0.7957 H   0  0  0  0  0  0  0  0  0  0  0  0
  1  2  1  0  0  0  0
  1 10  1  0  0  0  0
  1 11  1  0  0  0  0
  1 12  1  0  0  0  0
  2  3  1  0  0  0  0
  2  9  2  0  0  0  0
  3  4  2  0  0  0  0
  3 13  1  0  0  0  0
  4  5  1  0  0  0  0
  4 14  1  0  0  0  0
  5  6  1  0  0  0  0
  5  7  2  0  0  0  0
  6 15  1  0  0  0  0
  6 16  1  0  0  0  0
  6 17  1  0  0  0  0
  7  8  1  0  0  0  0
  7  9  1  0  0  0  0
  8 18  1  0  0  0  0
  8 19  1  0  0  0  0
  8 20  1  0  0  0  0
M  END
