
 OpenBabel02032211273D

 42 42  0  0  0  0  0  0  0  0999 V2000
    2.0672   -0.2330   -1.3044 C   0  0  0  0  0  0  0  0  0  0  0  0
    3.1442   -0.1488   -0.5136 C   0  0  0  0  0  0  0  0  0  0  0  0
    3.4309   -1.0526    0.6151 C   0  0  0  0  0  0  0  0  0  0  0  0
    4.1549   -0.5710    1.7145 C   0  0  0  0  0  0  0  0  0  0  0  0
    4.5383   -1.4239    2.7613 C   0  0  0  0  0  0  0  0  0  0  0  0
    5.4019   -0.8992    3.8306 C   0  0  0  0  0  0  0  0  0  0  0  0
    5.4190   -1.3289    5.0982 C   0  0  0  0  0  0  0  0  0  0  0  0
    4.1783   -2.7748    2.6928 C   0  0  0  0  0  0  0  0  0  0  0  0
    3.4525   -3.2681    1.6069 C   0  0  0  0  0  0  0  0  0  0  0  0
    3.2253   -4.6187    1.6238 O   0  0  0  0  0  0  0  0  0  0  0  0
    2.0391   -5.0475    0.9577 C   0  0  0  0  0  0  0  0  0  0  0  0
    1.9325   -6.5636    1.0955 C   0  0  0  0  0  0  0  0  0  0  0  0
    0.6715   -7.0678    0.4012 C   0  0  0  0  0  0  0  0  0  0  0  0
    0.5270   -8.5843    0.5034 C   0  0  0  0  0  0  0  0  0  0  0  0
   -0.7461   -9.0423   -0.2063 C   0  0  0  0  0  0  0  0  0  0  0  0
   -0.9285  -10.5549   -0.1271 C   0  0  0  0  0  0  0  0  0  0  0  0
   -2.1917  -10.9919   -0.8330 C   0  0  0  0  0  0  0  0  0  0  0  0
   -2.9800  -10.2503   -1.3969 O   0  0  0  0  0  0  0  0  0  0  0  0
   -2.3726  -12.3323   -0.7782 O   0  0  0  0  0  0  0  0  0  0  0  0
    3.0936   -2.4100    0.5654 C   0  0  0  0  0  0  0  0  0  0  0  0
    1.9414    0.4535   -2.1365 H   0  0  0  0  0  0  0  0  0  0  0  0
    1.2857   -0.9709   -1.1560 H   0  0  0  0  0  0  0  0  0  0  0  0
    3.8843    0.6259   -0.7063 H   0  0  0  0  0  0  0  0  0  0  0  0
    4.4319    0.4812    1.7538 H   0  0  0  0  0  0  0  0  0  0  0  0
    6.0856   -0.1045    3.5382 H   0  0  0  0  0  0  0  0  0  0  0  0
    4.7596   -2.1084    5.4657 H   0  0  0  0  0  0  0  0  0  0  0  0
    6.1099   -0.8907    5.8129 H   0  0  0  0  0  0  0  0  0  0  0  0
    4.4780   -3.4691    3.4728 H   0  0  0  0  0  0  0  0  0  0  0  0
    2.0755   -4.8030   -0.1091 H   0  0  0  0  0  0  0  0  0  0  0  0
    1.1663   -4.5684    1.4194 H   0  0  0  0  0  0  0  0  0  0  0  0
    1.9280   -6.8407    2.1560 H   0  0  0  0  0  0  0  0  0  0  0  0
    2.8239   -7.0333    0.6614 H   0  0  0  0  0  0  0  0  0  0  0  0
    0.6942   -6.7744   -0.6553 H   0  0  0  0  0  0  0  0  0  0  0  0
   -0.2071   -6.5859    0.8486 H   0  0  0  0  0  0  0  0  0  0  0  0
    0.4941   -8.8838    1.5576 H   0  0  0  0  0  0  0  0  0  0  0  0
    1.4003   -9.0710    0.0522 H   0  0  0  0  0  0  0  0  0  0  0  0
   -0.7128   -8.7313   -1.2582 H   0  0  0  0  0  0  0  0  0  0  0  0
   -1.6153   -8.5431    0.2404 H   0  0  0  0  0  0  0  0  0  0  0  0
   -0.9934  -10.8659    0.9216 H   0  0  0  0  0  0  0  0  0  0  0  0
   -0.0775  -11.0567   -0.6000 H   0  0  0  0  0  0  0  0  0  0  0  0
   -1.6687  -12.8038   -0.2975 H   0  0  0  0  0  0  0  0  0  0  0  0
    2.5970   -2.7916   -0.3194 H   0  0  0  0  0  0  0  0  0  0  0  0
  1  2  2  0  0  0  0
  1 21  1  0  0  0  0
  1 22  1  0  0  0  0
  2  3  1  0  0  0  0
  2 23  1  0  0  0  0
  3  4  1  0  0  0  0
  3 20  2  0  0  0  0
  4  5  2  0  0  0  0
  4 24  1  0  0  0  0
  5  6  1  0  0  0  0
  5  8  1  0  0  0  0
  6  7  2  0  0  0  0
  6 25  1  0  0  0  0
  7 26  1  0  0  0  0
  7 27  1  0  0  0  0
  8  9  2  0  0  0  0
  8 28  1  0  0  0  0
  9 10  1  0  0  0  0
  9 20  1  0  0  0  0
 10 11  1  0  0  0  0
 11 12  1  0  0  0  0
 11 29  1  0  0  0  0
 11 30  1  0  0  0  0
 12 13  1  0  0  0  0
 12 31  1  0  0  0  0
 12 32  1  0  0  0  0
 13 14  1  0  0  0  0
 13 33  1  0  0  0  0
 13 34  1  0  0  0  0
 14 15  1  0  0  0  0
 14 35  1  0  0  0  0
 14 36  1  0  0  0  0
 15 16  1  0  0  0  0
 15 37  1  0  0  0  0
 15 38  1  0  0  0  0
 16 17  1  0  0  0  0
 16 39  1  0  0  0  0
 16 40  1  0  0  0  0
 17 18  2  0  0  0  0
 17 19  1  0  0  0  0
 19 41  1  0  0  0  0
 20 42  1  0  0  0  0
M  END
