
  xtb     02032211163D
 xtb: 6.4.1 (23d549d)
 23 23  0     0  0            999 V2000
    1.2691    0.1456   -0.0962 c   0  0  0  0  0  0  0  0  0  0  0  0
    2.4646    0.0022    0.4612 c   0  0  0  0  0  0  0  0  0  0  0  0
    3.1863   -1.2492    0.6592 c   0  0  0  0  0  0  0  0  0  0  0  0
    2.7209   -2.4894    0.2448 c   0  0  0  0  0  0  0  0  0  0  0  0
    3.4660   -3.6456    0.4850 c   0  0  0  0  0  0  0  0  0  0  0  0
    2.8470   -4.7809    0.0726 o   0  0  0  0  0  0  0  0  0  0  0  0
    3.3541   -6.0616    0.3665 c   0  0  0  0  0  0  0  0  0  0  0  0
    4.7044   -3.5140    1.1332 c   0  0  0  0  0  0  0  0  0  0  0  0
    5.6596   -4.5894    1.4236 c   0  0  0  0  0  0  0  0  0  0  0  0
    6.2609   -4.7294    2.5965 c   0  0  0  0  0  0  0  0  0  0  0  0
    5.0642   -2.2129    1.5064 c   0  0  0  0  0  0  0  0  0  0  0  0
    4.3584   -1.1301    1.2927 n   0  0  0  0  0  0  0  0  0  0  0  0
    0.8115    1.1148   -0.1968 h   0  0  0  0  0  0  0  0  0  0  0  0
    0.6973   -0.6863   -0.4706 h   0  0  0  0  0  0  0  0  0  0  0  0
    3.0032    0.8643    0.8303 h   0  0  0  0  0  0  0  0  0  0  0  0
    1.7742   -2.6009   -0.2568 h   0  0  0  0  0  0  0  0  0  0  0  0
    2.5107   -6.7423    0.2456 h   0  0  0  0  0  0  0  0  0  0  0  0
    3.7295   -6.1266    1.3901 h   0  0  0  0  0  0  0  0  0  0  0  0
    4.1411   -6.3496   -0.3360 h   0  0  0  0  0  0  0  0  0  0  0  0
    5.9136   -5.2512    0.6064 h   0  0  0  0  0  0  0  0  0  0  0  0
    6.0272   -4.0910    3.4323 h   0  0  0  0  0  0  0  0  0  0  0  0
    6.9945   -5.4982    2.7688 h   0  0  0  0  0  0  0  0  0  0  0  0
    6.0158   -2.0583    1.9993 h   0  0  0  0  0  0  0  0  0  0  0  0
  1  2  2  0  0  0  0
  2  3  1  0  0  0  0
  3  4  4  0  0  0  0
  4  5  4  0  0  0  0
  5  6  1  0  0  0  0
  6  7  1  0  0  0  0
  5  8  4  0  0  0  0
  8  9  1  0  0  0  0
  9 10  2  0  0  0  0
  8 11  4  0  0  0  0
  3 12  4  0  0  0  0
 11 12  4  0  0  0  0
  1 13  1  0  0  0  0
  1 14  1  0  0  0  0
  2 15  1  0  0  0  0
  4 16  1  0  0  0  0
  7 17  1  0  0  0  0
  7 18  1  0  0  0  0
  7 19  1  0  0  0  0
  9 20  1  0  0  0  0
 10 21  1  0  0  0  0
 10 22  1  0  0  0  0
 11 23  1  0  0  0  0
M  END
