44

C          0.90490       -0.03430       -0.22350
C          2.45330       -0.10180       -0.16700
C          2.85310       -1.38710        0.56110
C          3.61490       -1.37830        1.75990
N          4.06840       -0.13580        2.34260
C          3.74140        1.12250        1.71320
C          2.96650        1.16410        0.52330
C          2.67020        2.42270       -0.05930
C          3.13400        3.60770        0.49760
C          3.91460        3.57270        1.64010
C          4.22120        2.35400        2.23830
C          4.84360       -0.15430        3.55720
C          5.67869       -1.24682        3.86155
C          6.42276       -1.26887        5.04445
C          6.35084       -0.19642        5.94526
C          7.14237       -0.20794        7.21965
C          5.52664        0.89701        5.64821
C          4.77905        0.91792        4.46746
C          3.87640       -2.62610        2.39150
C          3.44280       -3.82850        1.84170
C          2.72690       -3.83180        0.65730
C          2.42920       -2.63060        0.02670
C          3.04110       -0.14920       -1.60140
H          0.48650       -0.00210        0.80600
H          0.46880       -0.90940       -0.74650
H          0.54650        0.86090       -0.77080
H          2.07900        2.49990       -0.96070
H          2.89660        4.55610        0.03210
H          4.28950        4.49520        2.06510
H          4.84850        2.40590        3.11200
H          5.75349       -2.08284        3.17705
H          7.05438       -2.12304        5.25497
H          7.74055       -1.13863        7.31987
H          6.45266       -0.13957        8.08731
H          7.83533        0.65924        7.23695
H          5.46012        1.73274        6.33406
H          4.14085        1.76855        4.26349
H          4.40880       -2.70410        3.32340
H          3.66100       -4.76330        2.34250
H          2.38910       -4.76770        0.23120
H          1.85270       -2.68310       -0.88600
H          2.67990       -1.02930       -2.17080
H          4.15100       -0.19570       -1.55790
H          2.75550        0.74100       -2.19780
44

C          0.90490       -0.03430       -0.22350
C          2.45330       -0.10180       -0.16700
C          2.85310       -1.38710        0.56110
C          3.61490       -1.37830        1.75990
N          4.06840       -0.13580        2.34260
C          3.74140        1.12250        1.71320
C          2.96650        1.16410        0.52330
C          2.67020        2.42270       -0.05930
C          3.13400        3.60770        0.49760
C          3.91460        3.57270        1.64010
C          4.22120        2.35400        2.23830
C          4.84360       -0.15430        3.55720
C          5.80098        0.84588        3.81537
C          6.55966        0.82205        4.98893
C          6.37312       -0.19996        5.93099
C          7.18207       -0.23903        7.19385
C          5.41922       -1.19629        5.68489
C          4.66306       -1.17544        4.50960
C          3.87640       -2.62610        2.39150
C          3.44280       -3.82850        1.84170
C          2.72690       -3.83180        0.65730
C          2.42920       -2.63060        0.02670
C          3.04110       -0.14920       -1.60140
H          0.48650       -0.00210        0.80600
H          0.46880       -0.90940       -0.74650
H          0.54650        0.86090       -0.77080
H          2.07900        2.49990       -0.96070
H          2.89660        4.55610        0.03210
H          4.28950        4.49520        2.06510
H          4.84850        2.40590        3.11200
H          5.95702        1.64752        3.10396
H          7.29122        1.60193        5.16055
H          7.89870        0.60821        7.24554
H          7.75739       -1.18782        7.23861
H          6.50599       -0.18209        8.07257
H          5.26376       -1.99247        6.40265
H          3.93893       -1.96145        4.33555
H          4.40880       -2.70410        3.32340
H          3.66100       -4.76330        2.34250
H          2.38910       -4.76770        0.23120
H          1.85270       -2.68310       -0.88600
H          2.67990       -1.02930       -2.17080
H          4.15100       -0.19570       -1.55790
H          2.75550        0.74100       -2.19780
