31

C          3.72341       -0.73925        0.70089
C          2.48900       -0.04230        0.14400
N          2.86800        0.91940       -0.89630
C          3.50390        0.65720       -2.06770
C          3.68100        1.81640       -2.79830
C          4.30040        1.81680       -4.04730
C          4.74460        0.58440       -4.55840
C          4.56500       -0.60470       -3.81830
C          3.94020       -0.57700       -2.55700
C          2.65440        2.26130       -0.89400
C          3.14420        2.83720       -2.04820
C          3.05360        4.20760       -2.28930
C          2.44380        5.01320       -1.30380
C          2.31920        6.49480       -1.49780
C          1.94680        4.42360       -0.11650
C          2.04670        3.03800        0.09620
H          3.42064       -1.45686        1.49194
H          4.40220        0.01728        1.15187
H          4.26519       -1.28365       -0.09906
H          1.98260        0.47432        0.98446
H          1.76064       -0.77504       -0.26653
H          4.43280        2.73170       -4.60980
H          5.22540        0.54790       -5.52720
H          4.91030       -1.54600       -4.22570
H          3.80140       -1.49060       -1.99450
H          3.44550        4.63420       -3.20430
H          2.74860        6.81570       -2.47100
H          2.85730        7.02370       -0.68340
H          1.24730        6.78340       -1.47280
H          1.48240        5.04040        0.64280
H          1.66730        2.60460        1.01120
31

C          1.08790       -0.58123       -0.11318
C          2.48900       -0.04230        0.14400
N          2.86800        0.91940       -0.89630
C          3.50390        0.65720       -2.06770
C          3.68100        1.81640       -2.79830
C          4.30040        1.81680       -4.04730
C          4.74460        0.58440       -4.55840
C          4.56500       -0.60470       -3.81830
C          3.94020       -0.57700       -2.55700
C          2.65440        2.26130       -0.89400
C          3.14420        2.83720       -2.04820
C          3.05360        4.20760       -2.28930
C          2.44380        5.01320       -1.30380
C          2.31920        6.49480       -1.49780
C          1.94680        4.42360       -0.11650
C          2.04670        3.03800        0.09620
H          0.81969       -1.31308        0.67728
H          1.06708       -1.10032       -1.09634
H          0.34290        0.24020       -0.11931
H          3.18805       -0.90311        0.15026
H          2.56166        0.43608        1.14491
H          4.43280        2.73170       -4.60980
H          5.22540        0.54790       -5.52720
H          4.91030       -1.54600       -4.22570
H          3.80140       -1.49060       -1.99450
H          3.44550        4.63420       -3.20430
H          2.74860        6.81570       -2.47100
H          2.85730        7.02370       -0.68340
H          1.24730        6.78340       -1.47280
H          1.48240        5.04040        0.64280
H          1.66730        2.60460        1.01120
31

C          3.60769       -0.18945        1.16700
C          2.48900       -0.04230        0.14400
N          2.86800        0.91940       -0.89630
C          3.50390        0.65720       -2.06770
C          3.68100        1.81640       -2.79830
C          4.30040        1.81680       -4.04730
C          4.74460        0.58440       -4.55840
C          4.56500       -0.60470       -3.81830
C          3.94020       -0.57700       -2.55700
C          2.65440        2.26130       -0.89400
C          3.14420        2.83720       -2.04820
C          3.05360        4.20760       -2.28930
C          2.44380        5.01320       -1.30380
C          2.31920        6.49480       -1.49780
C          1.94680        4.42360       -0.11650
C          2.04670        3.03800        0.09620
H          3.30220       -0.91351        1.95109
H          3.79777        0.79407        1.64976
H          4.54090       -0.54464        0.68456
H          1.58186        0.30311        0.68018
H          2.23349       -1.01958       -0.32032
H          4.43280        2.73170       -4.60980
H          5.22540        0.54790       -5.52720
H          4.91030       -1.54600       -4.22570
H          3.80140       -1.49060       -1.99450
H          3.44550        4.63420       -3.20430
H          2.74860        6.81570       -2.47100
H          2.85730        7.02370       -0.68340
H          1.24730        6.78340       -1.47280
H          1.48240        5.04040        0.64280
H          1.66730        2.60460        1.01120
31

C          1.55326       -1.10113       -0.42427
C          2.48900       -0.04230        0.14400
N          2.86800        0.91940       -0.89630
C          3.50390        0.65720       -2.06770
C          3.68100        1.81640       -2.79830
C          4.30040        1.81680       -4.04730
C          4.74460        0.58440       -4.55840
C          4.56500       -0.60470       -3.81830
C          3.94020       -0.57700       -2.55700
C          2.65440        2.26130       -0.89400
C          3.14420        2.83720       -2.04820
C          3.05360        4.20760       -2.28930
C          2.44380        5.01320       -1.30380
C          2.31920        6.49480       -1.49780
C          1.94680        4.42360       -0.11650
C          2.04670        3.03800        0.09620
H          1.28278       -1.82517        0.37259
H          2.07104       -1.65146       -1.24007
H          0.62950       -0.63798       -0.82672
H          3.38636       -0.55954        0.54012
H          2.02355        0.49205        1.00061
H          4.43280        2.73170       -4.60980
H          5.22540        0.54790       -5.52720
H          4.91030       -1.54600       -4.22570
H          3.80140       -1.49060       -1.99450
H          3.44550        4.63420       -3.20430
H          2.74860        6.81570       -2.47100
H          2.85730        7.02370       -0.68340
H          1.24730        6.78340       -1.47280
H          1.48240        5.04040        0.64280
H          1.66730        2.60460        1.01120
31

C          0.98076       -0.03193        0.35557
C          2.48900       -0.04230        0.14400
N          2.86800        0.91940       -0.89630
C          3.50390        0.65720       -2.06770
C          3.68100        1.81640       -2.79830
C          4.30040        1.81680       -4.04730
C          4.74460        0.58440       -4.55840
C          4.56500       -0.60470       -3.81830
C          3.94020       -0.57700       -2.55700
C          2.65440        2.26130       -0.89400
C          3.14420        2.83720       -2.04820
C          3.05360        4.20760       -2.28930
C          2.44380        5.01320       -1.30380
C          2.31920        6.49480       -1.49780
C          1.94680        4.42360       -0.11650
C          2.04670        3.03800        0.09620
H          0.70972       -0.77020        1.13908
H          0.47350       -0.31990       -0.59113
H          0.63139        0.97424        0.66438
H          2.78338       -1.06984       -0.15130
H          3.03191        0.18760        1.08653
H          4.43280        2.73170       -4.60980
H          5.22540        0.54790       -5.52720
H          4.91030       -1.54600       -4.22570
H          3.80140       -1.49060       -1.99450
H          3.44550        4.63420       -3.20430
H          2.74860        6.81570       -2.47100
H          2.85730        7.02370       -0.68340
H          1.24730        6.78340       -1.47280
H          1.48240        5.04040        0.64280
H          1.66730        2.60460        1.01120
31

C          2.50578        0.62111        1.51486
C          2.48900       -0.04230        0.14400
N          2.86800        0.91940       -0.89630
C          3.50390        0.65720       -2.06770
C          3.68100        1.81640       -2.79830
C          4.30040        1.81680       -4.04730
C          4.74460        0.58440       -4.55840
C          4.56500       -0.60470       -3.81830
C          3.94020       -0.57700       -2.55700
C          2.65440        2.26130       -0.89400
C          3.14420        2.83720       -2.04820
C          3.05360        4.20760       -2.28930
C          2.44380        5.01320       -1.30380
C          2.31920        6.49480       -1.49780
C          1.94680        4.42360       -0.11650
C          2.04670        3.03800        0.09620
H          2.20893       -0.11692        2.28919
H          1.77526        1.45935        1.52795
H          3.51528        1.01417        1.75194
H          1.46370       -0.42465       -0.03564
H          3.16863       -0.92149        0.11105
H          4.43280        2.73170       -4.60980
H          5.22540        0.54790       -5.52720
H          4.91030       -1.54600       -4.22570
H          3.80140       -1.49060       -1.99450
H          3.44550        4.63420       -3.20430
H          2.74860        6.81570       -2.47100
H          2.85730        7.02370       -0.68340
H          1.24730        6.78340       -1.47280
H          1.48240        5.04040        0.64280
H          1.66730        2.60460        1.01120
31

C          3.16300        0.30737        1.46427
C          2.48900       -0.04230        0.14400
N          2.86800        0.91940       -0.89630
C          3.50390        0.65720       -2.06770
C          3.68100        1.81640       -2.79830
C          4.30040        1.81680       -4.04730
C          4.74460        0.58440       -4.55840
C          4.56500       -0.60470       -3.81830
C          3.94020       -0.57700       -2.55700
C          2.65440        2.26130       -0.89400
C          3.14420        2.83720       -2.04820
C          3.05360        4.20760       -2.28930
C          2.44380        5.01320       -1.30380
C          2.31920        6.49480       -1.49780
C          1.94680        4.42360       -0.11650
C          2.04670        3.03800        0.09620
H          2.85968       -0.42415        2.24225
H          2.83839        1.32072        1.78711
H          4.26703        0.29453        1.36056
H          1.39235       -0.02520        0.30763
H          2.74770       -1.07307       -0.18243
H          4.43280        2.73170       -4.60980
H          5.22540        0.54790       -5.52720
H          4.91030       -1.54600       -4.22570
H          3.80140       -1.49060       -1.99450
H          3.44550        4.63420       -3.20430
H          2.74860        6.81570       -2.47100
H          2.85730        7.02370       -0.68340
H          1.24730        6.78340       -1.47280
H          1.48240        5.04040        0.64280
H          1.66730        2.60460        1.01120
31

C          3.46004       -1.21546        0.16471
C          2.48900       -0.04230        0.14400
N          2.86800        0.91940       -0.89630
C          3.50390        0.65720       -2.06770
C          3.68100        1.81640       -2.79830
C          4.30040        1.81680       -4.04730
C          4.74460        0.58440       -4.55840
C          4.56500       -0.60470       -3.81830
C          3.94020       -0.57700       -2.55700
C          2.65440        2.26130       -0.89400
C          3.14420        2.83720       -2.04820
C          3.05360        4.20760       -2.28930
C          2.44380        5.01320       -1.30380
C          2.31920        6.49480       -1.49780
C          1.94680        4.42360       -0.11650
C          2.04670        3.03800        0.09620
H          3.16455       -1.92920        0.96199
H          4.48399       -0.84287        0.38650
H          3.46726       -1.74048       -0.81207
H          2.51423        0.43703        1.14366
H          1.44402       -0.38419       -0.02056
H          4.43280        2.73170       -4.60980
H          5.22540        0.54790       -5.52720
H          4.91030       -1.54600       -4.22570
H          3.80140       -1.49060       -1.99450
H          3.44550        4.63420       -3.20430
H          2.74860        6.81570       -2.47100
H          2.85730        7.02370       -0.68340
H          1.24730        6.78340       -1.47280
H          1.48240        5.04040        0.64280
H          1.66730        2.60460        1.01120
31

C          2.90996       -1.45102       -0.25345
C          2.48900       -0.04230        0.14400
N          2.86800        0.91940       -0.89630
C          3.50390        0.65720       -2.06770
C          3.68100        1.81640       -2.79830
C          4.30040        1.81680       -4.04730
C          4.74460        0.58440       -4.55840
C          4.56500       -0.60470       -3.81830
C          3.94020       -0.57700       -2.55700
C          2.65440        2.26130       -0.89400
C          3.14420        2.83720       -2.04820
C          3.05360        4.20760       -2.28930
C          2.44380        5.01320       -1.30380
C          2.31920        6.49480       -1.49780
C          1.94680        4.42360       -0.11650
C          2.04670        3.03800        0.09620
H          2.62378       -2.16484        0.54714
H          4.01443       -1.48466       -0.37786
H          2.42702       -1.75488       -1.20437
H          2.99025        0.20430        1.10194
H          1.39470        0.01586        0.33130
H          4.43280        2.73170       -4.60980
H          5.22540        0.54790       -5.52720
H          4.91030       -1.54600       -4.22570
H          3.80140       -1.49060       -1.99450
H          3.44550        4.63420       -3.20430
H          2.74860        6.81570       -2.47100
H          2.85730        7.02370       -0.68340
H          1.24730        6.78340       -1.47280
H          1.48240        5.04040        0.64280
H          1.66730        2.60460        1.01120
31

C          2.21359       -1.40926       -0.46855
C          2.48900       -0.04230        0.14400
N          2.86800        0.91940       -0.89630
C          3.50390        0.65720       -2.06770
C          3.68100        1.81640       -2.79830
C          4.30040        1.81680       -4.04730
C          4.74460        0.58440       -4.55840
C          4.56500       -0.60470       -3.81830
C          3.94020       -0.57700       -2.55700
C          2.65440        2.26130       -0.89400
C          3.14420        2.83720       -2.04820
C          3.05360        4.20760       -2.28930
C          2.44380        5.01320       -1.30380
C          2.31920        6.49480       -1.49780
C          1.94680        4.42360       -0.11650
C          2.04670        3.03800        0.09620
H          1.93654       -2.12685        0.33189
H          3.13321       -1.77996       -0.97190
H          1.39065       -1.35224       -1.20972
H          3.30875       -0.15965        0.88152
H          1.60635        0.33587        0.70424
H          4.43280        2.73170       -4.60980
H          5.22540        0.54790       -5.52720
H          4.91030       -1.54600       -4.22570
H          3.80140       -1.49060       -1.99450
H          3.44550        4.63420       -3.20430
H          2.74860        6.81570       -2.47100
H          2.85730        7.02370       -0.68340
H          1.24730        6.78340       -1.47280
H          1.48240        5.04040        0.64280
H          1.66730        2.60460        1.01120
