
 OpenBabel02012213393D

 31 33  0  0  0  0  0  0  0  0999 V2000
    3.5651   -0.3015    1.1239 C   0  0  0  0  0  0  0  0  0  0  0  0
    2.4989   -0.0204    0.0815 C   0  0  0  0  0  0  0  0  0  0  0  0
    2.9374    0.9356   -0.9232 N   0  0  0  0  0  0  0  0  0  0  0  0
    3.5625    0.6044   -2.1103 C   0  0  0  0  0  0  0  0  0  0  0  0
    3.7050    1.7889   -2.8388 C   0  0  0  0  0  0  0  0  0  0  0  0
    4.3016    1.7332   -4.1162 C   0  0  0  0  0  0  0  0  0  0  0  0
    4.7423    0.5073   -4.6248 C   0  0  0  0  0  0  0  0  0  0  0  0
    4.5977   -0.6576   -3.8787 C   0  0  0  0  0  0  0  0  0  0  0  0
    4.0057   -0.6314   -2.6120 C   0  0  0  0  0  0  0  0  0  0  0  0
    2.7268    2.2991   -0.8422 C   0  0  0  0  0  0  0  0  0  0  0  0
    3.1688    2.8524   -2.0437 C   0  0  0  0  0  0  0  0  0  0  0  0
    3.0228    4.2439   -2.2455 C   0  0  0  0  0  0  0  0  0  0  0  0
    2.4457    5.0443   -1.2459 C   0  0  0  0  0  0  0  0  0  0  0  0
    2.2510    6.5173   -1.4554 C   0  0  0  0  0  0  0  0  0  0  0  0
    2.0386    4.4603   -0.0448 C   0  0  0  0  0  0  0  0  0  0  0  0
    2.1733    3.0873    0.1792 C   0  0  0  0  0  0  0  0  0  0  0  0
    3.1810   -0.9923    1.8811 H   0  0  0  0  0  0  0  0  0  0  0  0
    3.8798    0.6177    1.6292 H   0  0  0  0  0  0  0  0  0  0  0  0
    4.4526   -0.7533    0.6688 H   0  0  0  0  0  0  0  0  0  0  0  0
    1.5954    0.3768    0.5564 H   0  0  0  0  0  0  0  0  0  0  0  0
    2.2011   -0.9415   -0.4308 H   0  0  0  0  0  0  0  0  0  0  0  0
    4.4205    2.6392   -4.7030 H   0  0  0  0  0  0  0  0  0  0  0  0
    5.2018    0.4675   -5.6089 H   0  0  0  0  0  0  0  0  0  0  0  0
    4.9483   -1.6029   -4.2857 H   0  0  0  0  0  0  0  0  0  0  0  0
    3.9001   -1.5481   -2.0411 H   0  0  0  0  0  0  0  0  0  0  0  0
    3.3537    4.6844   -3.1819 H   0  0  0  0  0  0  0  0  0  0  0  0
    2.6226    6.8385   -2.4337 H   0  0  0  0  0  0  0  0  0  0  0  0
    2.7884    7.0826   -0.6876 H   0  0  0  0  0  0  0  0  0  0  0  0
    1.1856    6.7639   -1.4034 H   0  0  0  0  0  0  0  0  0  0  0  0
    1.5984    5.0771    0.7366 H   0  0  0  0  0  0  0  0  0  0  0  0
    1.8491    2.6557    1.1201 H   0  0  0  0  0  0  0  0  0  0  0  0
  1  2  1  0  0  0  0
  1 17  1  0  0  0  0
  1 18  1  0  0  0  0
  1 19  1  0  0  0  0
  2  3  1  0  0  0  0
  2 20  1  0  0  0  0
  2 21  1  0  0  0  0
  3  4  1  0  0  0  0
  3 10  1  0  0  0  0
  4  5  1  0  0  0  0
  4  9  2  0  0  0  0
  5  6  2  0  0  0  0
  5 11  1  0  0  0  0
  6  7  1  0  0  0  0
  6 22  1  0  0  0  0
  7  8  2  0  0  0  0
  7 23  1  0  0  0  0
  8  9  1  0  0  0  0
  8 24  1  0  0  0  0
  9 25  1  0  0  0  0
 10 11  1  0  0  0  0
 10 16  2  0  0  0  0
 11 12  2  0  0  0  0
 12 13  1  0  0  0  0
 12 26  1  0  0  0  0
 13 14  1  0  0  0  0
 13 15  2  0  0  0  0
 14 27  1  0  0  0  0
 14 28  1  0  0  0  0
 14 29  1  0  0  0  0
 15 16  1  0  0  0  0
 15 30  1  0  0  0  0
 16 31  1  0  0  0  0
M  END
