
  xtb     02032211353D
 xtb: 6.4.1 (23d549d)
 20 20  0     0  0            999 V2000
   -3.7312   -0.6278   -0.0196 C   0  0  0  0  0  0  0  0  0  0  0  0
   -2.8537    0.3687    0.0201 C   0  0  0  0  0  0  0  0  0  0  0  0
   -1.4023    0.2554    0.0098 C   0  0  0  0  0  0  0  0  0  0  0  0
   -0.6315    1.4202    0.0060 C   0  0  0  0  0  0  0  0  0  0  0  0
    0.7452    1.3640   -0.0060 C   0  0  0  0  0  0  0  0  0  0  0  0
    1.4185    0.1402   -0.0104 C   0  0  0  0  0  0  0  0  0  0  0  0
    2.8743    0.1347   -0.0204 C   0  0  0  0  0  0  0  0  0  0  0  0
    3.6675   -0.9299    0.0220 C   0  0  0  0  0  0  0  0  0  0  0  0
    0.6474   -1.0247   -0.0055 C   0  0  0  0  0  0  0  0  0  0  0  0
   -0.7288   -0.9685    0.0040 C   0  0  0  0  0  0  0  0  0  0  0  0
   -4.7912   -0.4400   -0.0087 H   0  0  0  0  0  0  0  0  0  0  0  0
   -3.4384   -1.6626   -0.0663 H   0  0  0  0  0  0  0  0  0  0  0  0
   -3.2227    1.3869    0.0614 H   0  0  0  0  0  0  0  0  0  0  0  0
   -1.1265    2.3816    0.0105 H   0  0  0  0  0  0  0  0  0  0  0  0
    1.3169    2.2819   -0.0100 H   0  0  0  0  0  0  0  0  0  0  0  0
    3.3251    1.1194   -0.0636 H   0  0  0  0  0  0  0  0  0  0  0  0
    3.2913   -1.9373    0.0709 H   0  0  0  0  0  0  0  0  0  0  0  0
    4.7393   -0.8292    0.0112 H   0  0  0  0  0  0  0  0  0  0  0  0
    1.1327   -1.9886   -0.0115 H   0  0  0  0  0  0  0  0  0  0  0  0
   -1.2911   -1.8896    0.0091 H   0  0  0  0  0  0  0  0  0  0  0  0
  1  2  2  0  0  0  0
  2  3  1  0  0  0  0
  3  4  4  0  0  0  0
  4  5  4  0  0  0  0
  5  6  4  0  0  0  0
  6  7  1  0  0  0  0
  7  8  2  0  0  0  0
  6  9  4  0  0  0  0
  3 10  4  0  0  0  0
  9 10  4  0  0  0  0
  1 11  1  0  0  0  0
  1 12  1  0  0  0  0
  2 13  1  0  0  0  0
  4 14  1  0  0  0  0
  5 15  1  0  0  0  0
  7 16  1  0  0  0  0
  8 17  1  0  0  0  0
  8 18  1  0  0  0  0
  9 19  1  0  0  0  0
 10 20  1  0  0  0  0
M  END
