
 OpenBabel02012214093D

 19 19  0  0  0  0  0  0  0  0999 V2000
    0.8533    0.0544    0.0586 C   0  0  0  0  0  0  0  0  0  0  0  0
    2.3524    0.0631    0.0418 C   0  0  0  0  0  0  0  0  0  0  0  0
    3.0507    1.2757   -0.0006 C   0  0  0  0  0  0  0  0  0  0  0  0
    4.4449    1.2749   -0.0075 C   0  0  0  0  0  0  0  0  0  0  0  0
    5.2384    2.5409   -0.0169 C   0  0  0  0  0  0  0  0  0  0  0  0
    5.0757    0.0387    0.0116 C   0  0  0  0  0  0  0  0  0  0  0  0
    6.4183    0.0039   -0.0123 F   0  0  0  0  0  0  0  0  0  0  0  0
    4.4368   -1.1480    0.0535 N   0  0  0  0  0  0  0  0  0  0  0  0
    3.0942   -1.1217    0.0739 C   0  0  0  0  0  0  0  0  0  0  0  0
    2.4735   -2.3629    0.1951 N   0  0  0  0  0  0  0  0  0  0  0  0
    0.4473    1.0717    0.0626 H   0  0  0  0  0  0  0  0  0  0  0  0
    0.4830   -0.4523    0.9556 H   0  0  0  0  0  0  0  0  0  0  0  0
    0.4672   -0.4520   -0.8321 H   0  0  0  0  0  0  0  0  0  0  0  0
    2.5065    2.2167   -0.0149 H   0  0  0  0  0  0  0  0  0  0  0  0
    4.5879    3.4209   -0.0250 H   0  0  0  0  0  0  0  0  0  0  0  0
    5.8754    2.5862   -0.9072 H   0  0  0  0  0  0  0  0  0  0  0  0
    5.8667    2.5993    0.8776 H   0  0  0  0  0  0  0  0  0  0  0  0
    3.2051   -3.0688    0.1440 H   0  0  0  0  0  0  0  0  0  0  0  0
    1.7545   -2.5063   -0.5027 H   0  0  0  0  0  0  0  0  0  0  0  0
  1  2  1  0  0  0  0
  1 11  1  0  0  0  0
  1 12  1  0  0  0  0
  1 13  1  0  0  0  0
  2  3  1  0  0  0  0
  2  9  2  0  0  0  0
  3  4  2  0  0  0  0
  3 14  1  0  0  0  0
  4  5  1  0  0  0  0
  4  6  1  0  0  0  0
  5 15  1  0  0  0  0
  5 16  1  0  0  0  0
  5 17  1  0  0  0  0
  6  7  1  0  0  0  0
  6  8  2  0  0  0  0
  8  9  1  0  0  0  0
  9 10  1  0  0  0  0
 10 18  1  0  0  0  0
 10 19  1  0  0  0  0
M  END
