26

C          1.98263        0.63830       -0.83742
C          2.47180       -0.01100        0.23000
C          3.21920       -1.31800        0.19170
C          2.53020       -2.53290        0.29410
C          3.19540       -3.74760        0.26460
C          4.59300       -3.82630        0.13130
C          5.25530       -5.18290        0.10360
C          5.70913       -5.85217        1.17600
C          5.33180       -2.60300        0.02230
C          6.84670       -2.58320       -0.11630
C          4.63700       -1.34800        0.05210
C          5.38450       -0.02650       -0.05800
H          1.45604        1.57660       -0.69241
H          2.07577        0.28308       -1.85329
H          2.29181        0.47420        1.18104
H          1.45810       -2.57410        0.39770
H          2.57650       -4.62470        0.34560
H          5.40756       -5.70935       -0.82249
H          5.65421       -5.48452        2.18996
H          6.17153       -6.82479        1.03836
H          7.35880       -3.55290       -0.12180
H          7.28610       -2.02570        0.73750
H          7.12510       -2.08900       -1.07100
H          6.48050       -0.10700       -0.16260
H          5.20300        0.58000        0.85450
H          5.02820        0.52830       -0.95130
26

C          1.98263        0.63830       -0.83742
C          2.47180       -0.01100        0.23000
C          3.21920       -1.31800        0.19170
C          2.53020       -2.53290        0.29410
C          3.19540       -3.74760        0.26460
C          4.59300       -3.82630        0.13130
C          5.25530       -5.18290        0.10360
C          6.49362       -5.45631        0.54602
C          5.33180       -2.60300        0.02230
C          6.84670       -2.58320       -0.11630
C          4.63700       -1.34800        0.05210
C          5.38450       -0.02650       -0.05800
H          1.45604        1.57660       -0.69241
H          2.07577        0.28308       -1.85329
H          2.29181        0.47420        1.18104
H          1.45810       -2.57410        0.39770
H          2.57650       -4.62470        0.34560
H          4.74545       -6.04339       -0.29336
H          7.16300       -4.72303        0.97089
H          6.87042       -6.47210        0.47565
H          7.35880       -3.55290       -0.12180
H          7.28610       -2.02570        0.73750
H          7.12510       -2.08900       -1.07100
H          6.48050       -0.10700       -0.16260
H          5.20300        0.58000        0.85450
H          5.02820        0.52830       -0.95130
26

C          2.19935        0.69855        1.33570
C          2.47180       -0.01100        0.23000
C          3.21920       -1.31800        0.19170
C          2.53020       -2.53290        0.29410
C          3.19540       -3.74760        0.26460
C          4.59300       -3.82630        0.13130
C          5.25530       -5.18290        0.10360
C          5.49841       -5.91064       -0.99877
C          5.33180       -2.60300        0.02230
C          6.84670       -2.58320       -0.11630
C          4.63700       -1.34800        0.05210
C          5.38450       -0.02650       -0.05800
H          1.65350        1.63272        1.24570
H          2.49441        0.39986        2.33098
H          2.11122        0.42584       -0.69274
H          1.45810       -2.57410        0.39770
H          2.57650       -4.62470        0.34560
H          5.58135       -5.66192        1.01035
H          5.23724       -5.60253       -2.00034
H          5.98149       -6.87798       -0.90060
H          7.35880       -3.55290       -0.12180
H          7.28610       -2.02570        0.73750
H          7.12510       -2.08900       -1.07100
H          6.48050       -0.10700       -0.16260
H          5.20300        0.58000        0.85450
H          5.02820        0.52830       -0.95130
26

C          2.19935        0.69855        1.33570
C          2.47180       -0.01100        0.23000
C          3.21920       -1.31800        0.19170
C          2.53020       -2.53290        0.29410
C          3.19540       -3.74760        0.26460
C          4.59300       -3.82630        0.13130
C          5.25530       -5.18290        0.10360
C          6.38713       -5.48586       -0.55297
C          5.33180       -2.60300        0.02230
C          6.84670       -2.58320       -0.11630
C          4.63700       -1.34800        0.05210
C          5.38450       -0.02650       -0.05800
H          1.65350        1.63272        1.24570
H          2.49441        0.39986        2.33098
H          2.11122        0.42584       -0.69274
H          1.45810       -2.57410        0.39770
H          2.57650       -4.62470        0.34560
H          4.83328       -6.01943        0.63284
H          6.95229       -4.78266       -1.14661
H          6.77438       -6.49898       -0.50417
H          7.35880       -3.55290       -0.12180
H          7.28610       -2.02570        0.73750
H          7.12510       -2.08900       -1.07100
H          6.48050       -0.10700       -0.16260
H          5.20300        0.58000        0.85450
H          5.02820        0.52830       -0.95130
26

C          2.19935        0.69855        1.33570
C          2.47180       -0.01100        0.23000
C          3.21920       -1.31800        0.19170
C          2.53020       -2.53290        0.29410
C          3.19540       -3.74760        0.26460
C          4.59300       -3.82630        0.13130
C          5.25530       -5.18290        0.10360
C          6.49362       -5.45631        0.54602
C          5.33180       -2.60300        0.02230
C          6.84670       -2.58320       -0.11630
C          4.63700       -1.34800        0.05210
C          5.38450       -0.02650       -0.05800
H          1.65350        1.63272        1.24570
H          2.49441        0.39986        2.33098
H          2.11122        0.42584       -0.69274
H          1.45810       -2.57410        0.39770
H          2.57650       -4.62470        0.34560
H          4.74545       -6.04339       -0.29336
H          7.16300       -4.72303        0.97089
H          6.87042       -6.47210        0.47565
H          7.35880       -3.55290       -0.12180
H          7.28610       -2.02570        0.73750
H          7.12510       -2.08900       -1.07100
H          6.48050       -0.10700       -0.16260
H          5.20300        0.58000        0.85450
H          5.02820        0.52830       -0.95130
26

C          1.98263        0.63830       -0.83742
C          2.47180       -0.01100        0.23000
C          3.21920       -1.31800        0.19170
C          2.53020       -2.53290        0.29410
C          3.19540       -3.74760        0.26460
C          4.59300       -3.82630        0.13130
C          5.25530       -5.18290        0.10360
C          6.38713       -5.48586       -0.55297
C          5.33180       -2.60300        0.02230
C          6.84670       -2.58320       -0.11630
C          4.63700       -1.34800        0.05210
C          5.38450       -0.02650       -0.05800
H          1.45604        1.57660       -0.69241
H          2.07577        0.28308       -1.85329
H          2.29181        0.47420        1.18104
H          1.45810       -2.57410        0.39770
H          2.57650       -4.62470        0.34560
H          4.83328       -6.01943        0.63284
H          6.95229       -4.78266       -1.14661
H          6.77438       -6.49898       -0.50417
H          7.35880       -3.55290       -0.12180
H          7.28610       -2.02570        0.73750
H          7.12510       -2.08900       -1.07100
H          6.48050       -0.10700       -0.16260
H          5.20300        0.58000        0.85450
H          5.02820        0.52830       -0.95130
26

C          2.19935        0.69855        1.33570
C          2.47180       -0.01100        0.23000
C          3.21920       -1.31800        0.19170
C          2.53020       -2.53290        0.29410
C          3.19540       -3.74760        0.26460
C          4.59300       -3.82630        0.13130
C          5.25530       -5.18290        0.10360
C          5.70913       -5.85217        1.17600
C          5.33180       -2.60300        0.02230
C          6.84670       -2.58320       -0.11630
C          4.63700       -1.34800        0.05210
C          5.38450       -0.02650       -0.05800
H          1.65350        1.63272        1.24570
H          2.49441        0.39986        2.33098
H          2.11122        0.42584       -0.69274
H          1.45810       -2.57410        0.39770
H          2.57650       -4.62470        0.34560
H          5.40756       -5.70935       -0.82249
H          5.65421       -5.48452        2.18996
H          6.17153       -6.82479        1.03836
H          7.35880       -3.55290       -0.12180
H          7.28610       -2.02570        0.73750
H          7.12510       -2.08900       -1.07100
H          6.48050       -0.10700       -0.16260
H          5.20300        0.58000        0.85450
H          5.02820        0.52830       -0.95130
26

C          1.98263        0.63830       -0.83742
C          2.47180       -0.01100        0.23000
C          3.21920       -1.31800        0.19170
C          2.53020       -2.53290        0.29410
C          3.19540       -3.74760        0.26460
C          4.59300       -3.82630        0.13130
C          5.25530       -5.18290        0.10360
C          5.49841       -5.91064       -0.99877
C          5.33180       -2.60300        0.02230
C          6.84670       -2.58320       -0.11630
C          4.63700       -1.34800        0.05210
C          5.38450       -0.02650       -0.05800
H          1.45604        1.57660       -0.69241
H          2.07577        0.28308       -1.85329
H          2.29181        0.47420        1.18104
H          1.45810       -2.57410        0.39770
H          2.57650       -4.62470        0.34560
H          5.58135       -5.66192        1.01035
H          5.23724       -5.60253       -2.00034
H          5.98149       -6.87798       -0.90060
H          7.35880       -3.55290       -0.12180
H          7.28610       -2.02570        0.73750
H          7.12510       -2.08900       -1.07100
H          6.48050       -0.10700       -0.16260
H          5.20300        0.58000        0.85450
H          5.02820        0.52830       -0.95130
26

C          1.31995        0.20897        0.88202
C          2.47180       -0.01100        0.23000
C          3.21920       -1.31800        0.19170
C          2.53020       -2.53290        0.29410
C          3.19540       -3.74760        0.26460
C          4.59300       -3.82630        0.13130
C          5.25530       -5.18290        0.10360
C          4.62128       -6.36326        0.19676
C          5.33180       -2.60300        0.02230
C          6.84670       -2.58320       -0.11630
C          4.63700       -1.34800        0.05210
C          5.38450       -0.02650       -0.05800
H          0.86818        1.19544        0.84318
H          0.80083       -0.54302        1.45811
H          2.86794        0.84701       -0.29839
H          1.45810       -2.57410        0.39770
H          2.57650       -4.62470        0.34560
H          6.32249       -5.27957        0.00491
H          3.55274       -6.47207        0.30932
H          5.20056       -7.28102        0.16652
H          7.35880       -3.55290       -0.12180
H          7.28610       -2.02570        0.73750
H          7.12510       -2.08900       -1.07100
H          6.48050       -0.10700       -0.16260
H          5.20300        0.58000        0.85450
H          5.02820        0.52830       -0.95130
26

C          1.21275        0.17916       -0.19295
C          2.47180       -0.01100        0.23000
C          3.21920       -1.31800        0.19170
C          2.53020       -2.53290        0.29410
C          3.19540       -3.74760        0.26460
C          4.59300       -3.82630        0.13130
C          5.25530       -5.18290        0.10360
C          4.62128       -6.36326        0.19676
C          5.33180       -2.60300        0.02230
C          6.84670       -2.58320       -0.11630
C          4.63700       -1.34800        0.05210
C          5.38450       -0.02650       -0.05800
H          0.77050        1.16767       -0.11553
H          0.59374       -0.60079       -0.61171
H          2.95727        0.87093        0.62851
H          1.45810       -2.57410        0.39770
H          2.57650       -4.62470        0.34560
H          6.32249       -5.27957        0.00491
H          3.55274       -6.47207        0.30932
H          5.20056       -7.28102        0.16652
H          7.35880       -3.55290       -0.12180
H          7.28610       -2.02570        0.73750
H          7.12510       -2.08900       -1.07100
H          6.48050       -0.10700       -0.16260
H          5.20300        0.58000        0.85450
H          5.02820        0.52830       -0.95130
