 xtb: 6.5.0 (unknown)
          08122213083D

 23  0  0     0  0            999 V2000
   -3.3283    3.3696   -0.0141 C   0  0  0  0  0  0  0  0  0  0  0  0
   -2.0699    3.0164   -0.2463 C   0  0  0  0  0  0  0  0  0  0  0  0
   -1.5127    1.6702   -0.1765 C   0  0  0  0  0  0  0  0  0  0  0  0
   -2.2851    0.5431    0.1113 C   0  0  0  0  0  0  0  0  0  0  0  0
   -1.7327   -0.7246    0.1543 C   0  0  0  0  0  0  0  0  0  0  0  0
   -2.5520   -1.9453    0.4343 C   0  0  0  0  0  0  0  0  0  0  0  0
   -0.3670   -0.8515   -0.0804 C   0  0  0  0  0  0  0  0  0  0  0  0
    0.1618   -2.0928   -0.0913 F   0  0  0  0  0  0  0  0  0  0  0  0
    0.4495    0.2434   -0.3490 C   0  0  0  0  0  0  0  0  0  0  0  0
    1.8862    0.1211   -0.5881 C   0  0  0  0  0  0  0  0  0  0  0  0
    2.7132   -0.6948    0.0453 C   0  0  0  0  0  0  0  0  0  0  0  0
    2.4286   -1.5177    1.0396 F   0  0  0  0  0  0  0  0  0  0  0  0
    4.0176   -0.7536   -0.2138 F   0  0  0  0  0  0  0  0  0  0  0  0
   -0.1516    1.4973   -0.4108 C   0  0  0  0  0  0  0  0  0  0  0  0
   -3.6419    4.3963   -0.0914 H   0  0  0  0  0  0  0  0  0  0  0  0
   -4.0936    2.6649    0.2614 H   0  0  0  0  0  0  0  0  0  0  0  0
   -1.3532    3.7826   -0.5149 H   0  0  0  0  0  0  0  0  0  0  0  0
   -3.3425    0.6500    0.2940 H   0  0  0  0  0  0  0  0  0  0  0  0
   -3.5885   -1.6813    0.6239 H   0  0  0  0  0  0  0  0  0  0  0  0
   -2.1542   -2.4738    1.2995 H   0  0  0  0  0  0  0  0  0  0  0  0
   -2.5086   -2.6286   -0.4130 H   0  0  0  0  0  0  0  0  0  0  0  0
    2.3224    0.7757   -1.3273 H   0  0  0  0  0  0  0  0  0  0  0  0
    0.4651    2.3561   -0.6318 H   0  0  0  0  0  0  0  0  0  0  0  0
M  END
