
  xtb     02032211353D
 xtb: 6.4.1 (23d549d)
 38 39  0     0  0            999 V2000
    5.0907   -2.3760   -0.5206 C   0  0  0  0  0  0  0  0  0  0  0  0
    4.6648   -1.1218   -0.4268 C   0  0  0  0  0  0  0  0  0  0  0  0
    3.3142   -0.6778   -0.1089 C   0  0  0  0  0  0  0  0  0  0  0  0
    2.2682   -1.5530    0.1772 C   0  0  0  0  0  0  0  0  0  0  0  0
    1.0053   -1.0827    0.4801 C   0  0  0  0  0  0  0  0  0  0  0  0
    0.7428    0.2822    0.5078 C   0  0  0  0  0  0  0  0  0  0  0  0
   -0.4667    0.8363    0.8133 O   0  0  0  0  0  0  0  0  0  0  0  0
   -1.5895    0.0157    1.0271 C   0  0  0  0  0  0  0  0  0  0  0  0
   -2.1628   -0.5271   -0.3020 C   0  0  0  0  0  0  0  0  0  0  0  0
   -2.8283    0.5856   -1.1219 C   0  0  0  0  0  0  0  0  0  0  0  0
   -4.1973    0.9570   -0.5555 C   0  0  0  0  0  0  0  0  0  0  0  0
   -5.0344   -0.3104   -0.4064 C   0  0  0  0  0  0  0  0  0  0  0  0
   -4.2730   -1.3153    0.4554 C   0  0  0  0  0  0  0  0  0  0  0  0
   -3.0113   -1.6377   -0.0935 O   0  0  0  0  0  0  0  0  0  0  0  0
    1.7811    1.1918    0.2144 C   0  0  0  0  0  0  0  0  0  0  0  0
    1.5036    2.6239    0.2502 C   0  0  0  0  0  0  0  0  0  0  0  0
    2.2274    3.5734   -0.3291 C   0  0  0  0  0  0  0  0  0  0  0  0
    3.0401    0.6883   -0.0806 C   0  0  0  0  0  0  0  0  0  0  0  0
    6.1150   -2.6021   -0.7628 H   0  0  0  0  0  0  0  0  0  0  0  0
    4.4473   -3.2246   -0.3639 H   0  0  0  0  0  0  0  0  0  0  0  0
    5.3698   -0.3175   -0.6008 H   0  0  0  0  0  0  0  0  0  0  0  0
    2.4344   -2.6187    0.1690 H   0  0  0  0  0  0  0  0  0  0  0  0
    0.2272   -1.7986    0.6947 H   0  0  0  0  0  0  0  0  0  0  0  0
   -2.3115    0.6685    1.5237 H   0  0  0  0  0  0  0  0  0  0  0  0
   -1.3612   -0.8218    1.6976 H   0  0  0  0  0  0  0  0  0  0  0  0
   -1.3241   -0.9358   -0.8793 H   0  0  0  0  0  0  0  0  0  0  0  0
   -2.9537    0.2310   -2.1470 H   0  0  0  0  0  0  0  0  0  0  0  0
   -2.1632    1.4502   -1.1348 H   0  0  0  0  0  0  0  0  0  0  0  0
   -4.6926    1.6646   -1.2227 H   0  0  0  0  0  0  0  0  0  0  0  0
   -4.0881    1.4399    0.4179 H   0  0  0  0  0  0  0  0  0  0  0  0
   -5.2113   -0.7489   -1.3904 H   0  0  0  0  0  0  0  0  0  0  0  0
   -5.9978   -0.0910    0.0552 H   0  0  0  0  0  0  0  0  0  0  0  0
   -4.8059   -2.2675    0.5094 H   0  0  0  0  0  0  0  0  0  0  0  0
   -4.1591   -0.9210    1.4757 H   0  0  0  0  0  0  0  0  0  0  0  0
    0.6057    2.8920    0.7897 H   0  0  0  0  0  0  0  0  0  0  0  0
    3.1104    3.3609   -0.9078 H   0  0  0  0  0  0  0  0  0  0  0  0
    1.9526    4.6116   -0.2530 H   0  0  0  0  0  0  0  0  0  0  0  0
    3.8414    1.3838   -0.2811 H   0  0  0  0  0  0  0  0  0  0  0  0
  1  2  2  0  0  0  0
  2  3  1  0  0  0  0
  3  4  4  0  0  0  0
  4  5  4  0  0  0  0
  5  6  4  0  0  0  0
  6  7  1  0  0  0  0
  7  8  1  0  0  0  0
  8  9  1  0  0  0  0
  9 10  1  0  0  0  0
 10 11  1  0  0  0  0
 11 12  1  0  0  0  0
 12 13  1  0  0  0  0
  9 14  1  0  0  0  0
 13 14  1  0  0  0  0
  6 15  4  0  0  0  0
 15 16  1  0  0  0  0
 16 17  2  0  0  0  0
  3 18  4  0  0  0  0
 15 18  4  0  0  0  0
  1 19  1  0  0  0  0
  1 20  1  0  0  0  0
  2 21  1  0  0  0  0
  4 22  1  0  0  0  0
  5 23  1  0  0  0  0
  8 24  1  0  0  0  0
  8 25  1  0  0  0  0
  9 26  1  0  0  0  0
 10 27  1  0  0  0  0
 10 28  1  0  0  0  0
 11 29  1  0  0  0  0
 11 30  1  0  0  0  0
 12 31  1  0  0  0  0
 12 32  1  0  0  0  0
 13 33  1  0  0  0  0
 13 34  1  0  0  0  0
 16 35  1  0  0  0  0
 17 36  1  0  0  0  0
 17 37  1  0  0  0  0
 18 38  1  0  0  0  0
M  END
