
  xtb     02032211343D
 xtb: 6.4.1 (23d549d)
 30 31  0     0  0            999 V2000
   -1.6443   -0.1150    2.8282 C   0  0  0  0  0  0  0  0  0  0  0  0
   -1.4953    0.3466    1.5939 C   0  0  0  0  0  0  0  0  0  0  0  0
   -1.5425   -0.4709    0.3819 C   0  0  0  0  0  0  0  0  0  0  0  0
   -2.3537   -1.6016    0.3160 C   0  0  0  0  0  0  0  0  0  0  0  0
   -2.4406   -2.3528   -0.8400 C   0  0  0  0  0  0  0  0  0  0  0  0
   -1.7237   -1.9772   -1.9638 C   0  0  0  0  0  0  0  0  0  0  0  0
   -0.9171   -0.8559   -1.9185 C   0  0  0  0  0  0  0  0  0  0  0  0
   -0.8067   -0.1034   -0.7550 C   0  0  0  0  0  0  0  0  0  0  0  0
    0.0839    1.0722   -0.7466 C   0  0  0  0  0  0  0  0  0  0  0  0
   -0.1234    2.0766   -1.6879 C   0  0  0  0  0  0  0  0  0  0  0  0
    0.6473    3.2237   -1.6927 C   0  0  0  0  0  0  0  0  0  0  0  0
    1.6404    3.3896   -0.7411 C   0  0  0  0  0  0  0  0  0  0  0  0
    1.8651    2.3985    0.1944 C   0  0  0  0  0  0  0  0  0  0  0  0
    1.1116    1.2266    0.1933 C   0  0  0  0  0  0  0  0  0  0  0  0
    1.4385    0.2004    1.1879 C   0  0  0  0  0  0  0  0  0  0  0  0
    1.5663   -1.0931    0.9548 C   0  0  0  0  0  0  0  0  0  0  0  0
    1.4405   -1.7174   -0.2089 F   0  0  0  0  0  0  0  0  0  0  0  0
    1.8869   -1.9835    1.8934 F   0  0  0  0  0  0  0  0  0  0  0  0
   -1.6136    0.5389    3.6829 H   0  0  0  0  0  0  0  0  0  0  0  0
   -1.7843   -1.1624    3.0364 H   0  0  0  0  0  0  0  0  0  0  0  0
   -1.3198    1.4037    1.4353 H   0  0  0  0  0  0  0  0  0  0  0  0
   -2.9390   -1.8781    1.1802 H   0  0  0  0  0  0  0  0  0  0  0  0
   -3.0737   -3.2275   -0.8675 H   0  0  0  0  0  0  0  0  0  0  0  0
   -1.7919   -2.5568   -2.8722 H   0  0  0  0  0  0  0  0  0  0  0  0
   -0.3407   -0.5671   -2.7853 H   0  0  0  0  0  0  0  0  0  0  0  0
   -0.9181    1.9554   -2.4098 H   0  0  0  0  0  0  0  0  0  0  0  0
    0.4669    3.9920   -2.4296 H   0  0  0  0  0  0  0  0  0  0  0  0
    2.2383    4.2885   -0.7290 H   0  0  0  0  0  0  0  0  0  0  0  0
    2.6465    2.5180    0.9308 H   0  0  0  0  0  0  0  0  0  0  0  0
    1.6477    0.5308    2.1946 H   0  0  0  0  0  0  0  0  0  0  0  0
  1  2  2  0  0  0  0
  2  3  1  0  0  0  0
  3  4  4  0  0  0  0
  4  5  4  0  0  0  0
  5  6  4  0  0  0  0
  6  7  4  0  0  0  0
  3  8  4  0  0  0  0
  7  8  4  0  0  0  0
  8  9  1  0  0  0  0
  9 10  4  0  0  0  0
 10 11  4  0  0  0  0
 11 12  4  0  0  0  0
 12 13  4  0  0  0  0
  9 14  4  0  0  0  0
 13 14  4  0  0  0  0
 14 15  1  0  0  0  0
 15 16  2  0  0  0  0
 16 17  1  0  0  0  0
 16 18  1  0  0  0  0
  1 19  1  0  0  0  0
  1 20  1  0  0  0  0
  2 21  1  0  0  0  0
  4 22  1  0  0  0  0
  5 23  1  0  0  0  0
  6 24  1  0  0  0  0
  7 25  1  0  0  0  0
 10 26  1  0  0  0  0
 11 27  1  0  0  0  0
 12 28  1  0  0  0  0
 13 29  1  0  0  0  0
 15 30  1  0  0  0  0
M  END
