
  xtb     02032210423D
 xtb: 6.4.1 (23d549d)
 32 34  0     0  0            999 V2000
    3.3945    0.8017   -0.5827 c   0  0  0  0  0  0  0  0  0  0  0  0
    2.2388    0.2935    0.2786 c   0  0  0  0  0  0  0  0  0  0  0  0
    2.6476   -0.7888    1.1333 n   0  0  0  0  0  0  0  0  0  0  0  0
    2.6508   -2.1219    0.7906 c   0  0  0  0  0  0  0  0  0  0  0  0
    3.1633   -2.8828    1.8682 c   0  0  0  0  0  0  0  0  0  0  0  0
    3.2537   -4.2644    1.7649 c   0  0  0  0  0  0  0  0  0  0  0  0
    2.8381   -4.8682    0.5952 c   0  0  0  0  0  0  0  0  0  0  0  0
    2.3393   -4.1121   -0.4631 c   0  0  0  0  0  0  0  0  0  0  0  0
    2.2392   -2.7363   -0.3839 c   0  0  0  0  0  0  0  0  0  0  0  0
    3.1719   -0.6609    2.3928 c   0  0  0  0  0  0  0  0  0  0  0  0
    3.4988   -1.9430    2.9006 c   0  0  0  0  0  0  0  0  0  0  0  0
    4.0340   -2.0732    4.1698 c   0  0  0  0  0  0  0  0  0  0  0  0
    4.2503   -0.9349    4.9442 c   0  0  0  0  0  0  0  0  0  0  0  0
    4.8098   -1.1173    6.2724 c   0  0  0  0  0  0  0  0  0  0  0  0
    5.0760   -0.2074    7.1982 c   0  0  0  0  0  0  0  0  0  0  0  0
    4.8970    1.1101    7.1375 f   0  0  0  0  0  0  0  0  0  0  0  0
    5.5923   -0.5137    8.3914 f   0  0  0  0  0  0  0  0  0  0  0  0
    3.9267    0.3282    4.4199 c   0  0  0  0  0  0  0  0  0  0  0  0
    3.3938    0.4777    3.1581 c   0  0  0  0  0  0  0  0  0  0  0  0
    3.0575    1.6144   -1.2206 h   0  0  0  0  0  0  0  0  0  0  0  0
    3.7784   -0.0004   -1.2091 h   0  0  0  0  0  0  0  0  0  0  0  0
    4.2034    1.1632    0.0484 h   0  0  0  0  0  0  0  0  0  0  0  0
    1.4229   -0.0588   -0.3586 h   0  0  0  0  0  0  0  0  0  0  0  0
    1.8538    1.1028    0.9050 h   0  0  0  0  0  0  0  0  0  0  0  0
    3.6425   -4.8501    2.5842 h   0  0  0  0  0  0  0  0  0  0  0  0
    2.9001   -5.9414    0.4931 h   0  0  0  0  0  0  0  0  0  0  0  0
    2.0256   -4.6126   -1.3674 h   0  0  0  0  0  0  0  0  0  0  0  0
    1.8544   -2.1662   -1.2161 h   0  0  0  0  0  0  0  0  0  0  0  0
    4.2812   -3.0504    4.5571 h   0  0  0  0  0  0  0  0  0  0  0  0
    5.0407   -2.1340    6.5573 h   0  0  0  0  0  0  0  0  0  0  0  0
    4.1000    1.2107    5.0128 h   0  0  0  0  0  0  0  0  0  0  0  0
    3.1609    1.4626    2.7828 h   0  0  0  0  0  0  0  0  0  0  0  0
  1  2  1  0  0  0  0
  2  3  1  0  0  0  0
  3  4  1  0  0  0  0
  4  5  4  0  0  0  0
  5  6  4  0  0  0  0
  6  7  4  0  0  0  0
  7  8  4  0  0  0  0
  4  9  4  0  0  0  0
  8  9  4  0  0  0  0
  3 10  1  0  0  0  0
  5 11  1  0  0  0  0
 10 11  4  0  0  0  0
 11 12  4  0  0  0  0
 12 13  4  0  0  0  0
 13 14  1  0  0  0  0
 14 15  2  0  0  0  0
 15 16  1  0  0  0  0
 15 17  1  0  0  0  0
 13 18  4  0  0  0  0
 10 19  4  0  0  0  0
 18 19  4  0  0  0  0
  1 20  1  0  0  0  0
  1 21  1  0  0  0  0
  1 22  1  0  0  0  0
  2 23  1  0  0  0  0
  2 24  1  0  0  0  0
  6 25  1  0  0  0  0
  7 26  1  0  0  0  0
  8 27  1  0  0  0  0
  9 28  1  0  0  0  0
 12 29  1  0  0  0  0
 14 30  1  0  0  0  0
 18 31  1  0  0  0  0
 19 32  1  0  0  0  0
M  END
