
  xtb     02032210393D
 xtb: 6.4.1 (23d549d)
 43 44  0     0  0            999 V2000
    3.8207   -3.2764    0.3056 c   0  0  0  0  0  0  0  0  0  0  0  0
    2.4052   -3.6565    0.7381 c   0  0  0  0  0  0  0  0  0  0  0  0
    2.4140   -4.9796    1.5045 c   0  0  0  0  0  0  0  0  0  0  0  0
    1.9010   -2.7028    1.7051 o   0  0  0  0  0  0  0  0  0  0  0  0
    1.7709   -1.4118    1.3840 c   0  0  0  0  0  0  0  0  0  0  0  0
    1.3092   -0.6916    2.4662 n   0  0  0  0  0  0  0  0  0  0  0  0
    1.2543   -1.2356    3.7655 c   0  0  0  0  0  0  0  0  0  0  0  0
    2.3344   -1.9226    4.3128 c   0  0  0  0  0  0  0  0  0  0  0  0
    2.2617   -2.4411    5.5885 c   0  0  0  0  0  0  0  0  0  0  0  0
    1.1110   -2.2767    6.3631 c   0  0  0  0  0  0  0  0  0  0  0  0
    0.9689   -2.7964    7.7123 c   0  0  0  0  0  0  0  0  0  0  0  0
    1.8199   -3.5416    8.4029 c   0  0  0  0  0  0  0  0  0  0  0  0
    3.0112   -3.9909    8.0239 f   0  0  0  0  0  0  0  0  0  0  0  0
    1.5749   -3.9665    9.6418 f   0  0  0  0  0  0  0  0  0  0  0  0
    0.0405   -1.5672    5.8123 c   0  0  0  0  0  0  0  0  0  0  0  0
    0.1068   -1.0556    4.5345 c   0  0  0  0  0  0  0  0  0  0  0  0
    0.8725    0.6445    2.2920 c   0  0  0  0  0  0  0  0  0  0  0  0
    0.1022    1.0127    1.1959 c   0  0  0  0  0  0  0  0  0  0  0  0
   -0.3099    2.3256    1.0554 c   0  0  0  0  0  0  0  0  0  0  0  0
    0.0278    3.2737    2.0059 c   0  0  0  0  0  0  0  0  0  0  0  0
    0.7886    2.9045    3.1026 c   0  0  0  0  0  0  0  0  0  0  0  0
    1.2147    1.5977    3.2463 c   0  0  0  0  0  0  0  0  0  0  0  0
    1.9983   -0.9164    0.3088 o   0  0  0  0  0  0  0  0  0  0  0  0
    1.4666   -3.7382   -0.4650 c   0  0  0  0  0  0  0  0  0  0  0  0
    4.4676   -3.1847    1.1758 h   0  0  0  0  0  0  0  0  0  0  0  0
    3.8110   -2.3297   -0.2276 h   0  0  0  0  0  0  0  0  0  0  0  0
    4.2210   -4.0457   -0.3486 h   0  0  0  0  0  0  0  0  0  0  0  0
    3.0500   -4.8988    2.3820 h   0  0  0  0  0  0  0  0  0  0  0  0
    2.7861   -5.7757    0.8668 h   0  0  0  0  0  0  0  0  0  0  0  0
    1.4078   -5.2260    1.8328 h   0  0  0  0  0  0  0  0  0  0  0  0
    3.2364   -2.0455    3.7345 h   0  0  0  0  0  0  0  0  0  0  0  0
    3.1149   -2.9660    5.9857 h   0  0  0  0  0  0  0  0  0  0  0  0
    0.0490   -2.5568    8.2267 h   0  0  0  0  0  0  0  0  0  0  0  0
   -0.8578   -1.4237    6.3947 h   0  0  0  0  0  0  0  0  0  0  0  0
   -0.7296   -0.5118    4.1212 h   0  0  0  0  0  0  0  0  0  0  0  0
   -0.1636    0.2770    0.4543 h   0  0  0  0  0  0  0  0  0  0  0  0
   -0.9050    2.6068    0.1995 h   0  0  0  0  0  0  0  0  0  0  0  0
   -0.2993    4.2962    1.8926 h   0  0  0  0  0  0  0  0  0  0  0  0
    1.0596    3.6382    3.8472 h   0  0  0  0  0  0  0  0  0  0  0  0
    1.8146    1.3090    4.0969 h   0  0  0  0  0  0  0  0  0  0  0  0
    1.8018   -4.5233   -1.1370 h   0  0  0  0  0  0  0  0  0  0  0  0
    1.4597   -2.7934   -1.0014 h   0  0  0  0  0  0  0  0  0  0  0  0
    0.4552   -3.9646   -0.1339 h   0  0  0  0  0  0  0  0  0  0  0  0
  1  2  1  0  0  0  0
  2  3  1  0  0  0  0
  2  4  1  0  0  0  0
  4  5  1  0  0  0  0
  5  6  1  0  0  0  0
  6  7  1  0  0  0  0
  7  8  4  0  0  0  0
  8  9  4  0  0  0  0
  9 10  4  0  0  0  0
 10 11  1  0  0  0  0
 11 12  2  0  0  0  0
 12 13  1  0  0  0  0
 12 14  1  0  0  0  0
 10 15  4  0  0  0  0
  7 16  4  0  0  0  0
 15 16  4  0  0  0  0
  6 17  1  0  0  0  0
 17 18  4  0  0  0  0
 18 19  4  0  0  0  0
 19 20  4  0  0  0  0
 20 21  4  0  0  0  0
 17 22  4  0  0  0  0
 21 22  4  0  0  0  0
  5 23  2  0  0  0  0
  2 24  1  0  0  0  0
  1 25  1  0  0  0  0
  1 26  1  0  0  0  0
  1 27  1  0  0  0  0
  3 28  1  0  0  0  0
  3 29  1  0  0  0  0
  3 30  1  0  0  0  0
  8 31  1  0  0  0  0
  9 32  1  0  0  0  0
 11 33  1  0  0  0  0
 15 34  1  0  0  0  0
 16 35  1  0  0  0  0
 18 36  1  0  0  0  0
 19 37  1  0  0  0  0
 20 38  1  0  0  0  0
 21 39  1  0  0  0  0
 22 40  1  0  0  0  0
 24 41  1  0  0  0  0
 24 42  1  0  0  0  0
 24 43  1  0  0  0  0
M  END
