18

C          0.98270       -0.17930       -0.12480
C          2.48550       -0.08840        0.00880
C          3.21610        1.13410        0.10980
C          2.60010        2.51320        0.09540
C          4.61660        1.08330        0.23220
C          5.29250       -0.13530        0.25480
C          4.58290       -1.32740        0.15500
C          3.19330       -1.30850        0.03310
F          2.53110       -2.49060       -0.06160
H          0.44850        0.78210       -0.13780
H          0.57490       -0.76450        0.72660
H          0.73010       -0.70450       -1.07010
H          1.50490        2.54310       -0.00290
H          3.01880        3.09060       -0.75600
H          2.85760        3.03850        1.03950
H          5.19150        1.99860        0.31080
H          6.37070       -0.15430        0.34950
H          5.11210       -2.27170        0.17260
