19

C          2.12900        1.33045        0.35709
C          2.29700        0.02970        0.07910
C          3.03340       -0.93990        0.93670
C          4.08690       -0.46110        1.72720
N          4.77790       -1.30150        2.53600
C          4.49420       -2.62570        2.61480
F          5.23030       -3.40630        3.44520
C          3.45910       -3.17800        1.83860
C          3.18410       -4.64200        1.93840
C          3.39484       -5.39269        3.02827
C          2.72660       -2.31470        0.99820
H          1.57960        1.95623       -0.33830
H          2.52410        1.80085        1.24675
H          1.86784       -0.33568       -0.84968
H          4.35610        0.58690        1.70790
H          2.77301       -5.14774        1.06982
H          3.78858       -4.99738        3.95448
H          3.15576       -6.45119        2.99972
H          1.92660       -2.70590        0.39730
19

C          1.20929        0.71788        0.45425
C          2.29700        0.02970        0.07910
C          3.03340       -0.93990        0.93670
C          4.08690       -0.46110        1.72720
N          4.77790       -1.30150        2.53600
C          4.49420       -2.62570        2.61480
F          5.23030       -3.40630        3.44520
C          3.45910       -3.17800        1.83860
C          3.18410       -4.64200        1.93840
C          3.74803       -5.58558        1.17197
C          2.72660       -2.31470        0.99820
H          0.74842        1.40697       -0.24558
H          0.76258        0.62933        1.43481
H          2.66930        0.20522       -0.92634
H          4.35610        0.58690        1.70790
H          2.48083       -4.98223        2.69262
H          4.47065       -5.36797        0.39762
H          3.48361       -6.62669        1.32874
H          1.92660       -2.70590        0.39730
19

C          2.61542        0.33399       -1.18718
C          2.29700        0.02970        0.07910
C          3.03340       -0.93990        0.93670
C          4.08690       -0.46110        1.72720
N          4.77790       -1.30150        2.53600
C          4.49420       -2.62570        2.61480
F          5.23030       -3.40630        3.44520
C          3.45910       -3.17800        1.83860
C          3.18410       -4.64200        1.93840
C          2.32646       -5.20765        2.79878
C          2.72660       -2.31470        0.99820
H          2.00941        1.05157       -1.73017
H          3.45182       -0.10930       -1.70948
H          1.42802        0.52594        0.50212
H          4.35610        0.58690        1.70790
H          3.70695       -5.31017        1.26062
H          1.74143       -4.64303        3.51160
H          2.19400       -6.28502        2.78726
H          1.92660       -2.70590        0.39730
19

C          2.61542        0.33399       -1.18718
C          2.29700        0.02970        0.07910
C          3.03340       -0.93990        0.93670
C          4.08690       -0.46110        1.72720
N          4.77790       -1.30150        2.53600
C          4.49420       -2.62570        2.61480
F          5.23030       -3.40630        3.44520
C          3.45910       -3.17800        1.83860
C          3.18410       -4.64200        1.93840
C          3.74803       -5.58558        1.17197
C          2.72660       -2.31470        0.99820
H          2.00941        1.05157       -1.73017
H          3.45182       -0.10930       -1.70948
H          1.42802        0.52594        0.50212
H          4.35610        0.58690        1.70790
H          2.48083       -4.98223        2.69262
H          4.47065       -5.36797        0.39762
H          3.48361       -6.62669        1.32874
H          1.92660       -2.70590        0.39730
19

C          1.20929        0.71788        0.45425
C          2.29700        0.02970        0.07910
C          3.03340       -0.93990        0.93670
C          4.08690       -0.46110        1.72720
N          4.77790       -1.30150        2.53600
C          4.49420       -2.62570        2.61480
F          5.23030       -3.40630        3.44520
C          3.45910       -3.17800        1.83860
C          3.18410       -4.64200        1.93840
C          2.32646       -5.20765        2.79878
C          2.72660       -2.31470        0.99820
H          0.74842        1.40697       -0.24558
H          0.76258        0.62933        1.43481
H          2.66930        0.20522       -0.92634
H          4.35610        0.58690        1.70790
H          3.70695       -5.31017        1.26062
H          1.74143       -4.64303        3.51160
H          2.19400       -6.28502        2.78726
H          1.92660       -2.70590        0.39730
19

C          1.71512       -0.26565       -1.09206
C          2.29700        0.02970        0.07910
C          3.03340       -0.93990        0.93670
C          4.08690       -0.46110        1.72720
N          4.77790       -1.30150        2.53600
C          4.49420       -2.62570        2.61480
F          5.23030       -3.40630        3.44520
C          3.45910       -3.17800        1.83860
C          3.18410       -4.64200        1.93840
C          2.70220       -5.40444        0.94733
C          2.72660       -2.31470        0.99820
H          1.19578        0.51392       -1.63940
H          1.72750       -1.25608       -1.52539
H          2.21256        1.05542        0.42708
H          4.35610        0.58690        1.70790
H          3.39504       -5.14123        2.87940
H          2.46672       -5.02110       -0.03591
H          2.54216       -6.46402        1.12077
H          1.92660       -2.70590        0.39730
19

C          1.71512       -0.26565       -1.09206
C          2.29700        0.02970        0.07910
C          3.03340       -0.93990        0.93670
C          4.08690       -0.46110        1.72720
N          4.77790       -1.30150        2.53600
C          4.49420       -2.62570        2.61480
F          5.23030       -3.40630        3.44520
C          3.45910       -3.17800        1.83860
C          3.18410       -4.64200        1.93840
C          1.98383       -5.21346        1.76942
C          2.72660       -2.31470        0.99820
H          1.19578        0.51392       -1.63940
H          1.72750       -1.25608       -1.52539
H          2.21256        1.05542        0.42708
H          4.35610        0.58690        1.70790
H          4.01465       -5.30695        2.15576
H          1.08755       -4.65477        1.53769
H          1.89047       -6.29136        1.85781
H          1.92660       -2.70590        0.39730
19

C          1.26283       -0.27735       -0.71692
C          2.29700        0.02970        0.07910
C          3.03340       -0.93990        0.93670
C          4.08690       -0.46110        1.72720
N          4.77790       -1.30150        2.53600
C          4.49420       -2.62570        2.61480
F          5.23030       -3.40630        3.44520
C          3.45910       -3.17800        1.83860
C          3.18410       -4.64200        1.93840
C          1.98383       -5.21346        1.76942
C          2.72660       -2.31470        0.99820
H          0.78918        0.50588       -1.29935
H          0.86208       -1.27748       -0.80648
H          2.61019        1.06976        0.10185
H          4.35610        0.58690        1.70790
H          4.01465       -5.30695        2.15576
H          1.08755       -4.65477        1.53769
H          1.89047       -6.29136        1.85781
H          1.92660       -2.70590        0.39730
19

C          1.20929        0.71788        0.45425
C          2.29700        0.02970        0.07910
C          3.03340       -0.93990        0.93670
C          4.08690       -0.46110        1.72720
N          4.77790       -1.30150        2.53600
C          4.49420       -2.62570        2.61480
F          5.23030       -3.40630        3.44520
C          3.45910       -3.17800        1.83860
C          3.18410       -4.64200        1.93840
C          3.39484       -5.39269        3.02827
C          2.72660       -2.31470        0.99820
H          0.74842        1.40697       -0.24558
H          0.76258        0.62933        1.43481
H          2.66930        0.20522       -0.92634
H          4.35610        0.58690        1.70790
H          2.77301       -5.14774        1.06982
H          3.78858       -4.99738        3.95448
H          3.15576       -6.45119        2.99972
H          1.92660       -2.70590        0.39730
19

C          2.61542        0.33399       -1.18718
C          2.29700        0.02970        0.07910
C          3.03340       -0.93990        0.93670
C          4.08690       -0.46110        1.72720
N          4.77790       -1.30150        2.53600
C          4.49420       -2.62570        2.61480
F          5.23030       -3.40630        3.44520
C          3.45910       -3.17800        1.83860
C          3.18410       -4.64200        1.93840
C          4.09804       -5.57964        2.22354
C          2.72660       -2.31470        0.99820
H          2.00941        1.05157       -1.73017
H          3.45182       -0.10930       -1.70948
H          1.42802        0.52594        0.50212
H          4.35610        0.58690        1.70790
H          2.16649       -4.98552        1.77818
H          5.13863       -5.35599        2.41410
H          3.79368       -6.62020        2.27824
H          1.92660       -2.70590        0.39730
