
 OpenBabel02032211213D

 19 19  0  0  0  0  0  0  0  0999 V2000
    1.2266   -0.2654   -0.6723 C   0  0  0  0  0  0  0  0  0  0  0  0
    2.2970    0.0297    0.0791 C   0  0  0  0  0  0  0  0  0  0  0  0
    3.0334   -0.9399    0.9367 C   0  0  0  0  0  0  0  0  0  0  0  0
    4.0869   -0.4611    1.7272 C   0  0  0  0  0  0  0  0  0  0  0  0
    4.7779   -1.3015    2.5360 N   0  0  0  0  0  0  0  0  0  0  0  0
    4.4942   -2.6257    2.6148 C   0  0  0  0  0  0  0  0  0  0  0  0
    5.2303   -3.4063    3.4452 F   0  0  0  0  0  0  0  0  0  0  0  0
    3.4591   -3.1780    1.8386 C   0  0  0  0  0  0  0  0  0  0  0  0
    3.1841   -4.6420    1.9384 C   0  0  0  0  0  0  0  0  0  0  0  0
    2.2821   -5.3080    1.2045 C   0  0  0  0  0  0  0  0  0  0  0  0
    2.7266   -2.3147    0.9982 C   0  0  0  0  0  0  0  0  0  0  0  0
    0.7567    0.5169   -1.2590 H   0  0  0  0  0  0  0  0  0  0  0  0
    0.7928   -1.2545   -0.7210 H   0  0  0  0  0  0  0  0  0  0  0  0
    2.6422    1.0597    0.0630 H   0  0  0  0  0  0  0  0  0  0  0  0
    4.3561    0.5869    1.7079 H   0  0  0  0  0  0  0  0  0  0  0  0
    3.7593   -5.2252    2.6513 H   0  0  0  0  0  0  0  0  0  0  0  0
    1.6608   -4.8362    0.4558 H   0  0  0  0  0  0  0  0  0  0  0  0
    2.1622   -6.3770    1.3503 H   0  0  0  0  0  0  0  0  0  0  0  0
    1.9266   -2.7059    0.3973 H   0  0  0  0  0  0  0  0  0  0  0  0
  1  2  2  0  0  0  0
  1 12  1  0  0  0  0
  1 13  1  0  0  0  0
  2  3  1  0  0  0  0
  2 14  1  0  0  0  0
  3  4  1  0  0  0  0
  3 11  2  0  0  0  0
  4  5  2  0  0  0  0
  4 15  1  0  0  0  0
  5  6  1  0  0  0  0
  6  7  1  0  0  0  0
  6  8  2  0  0  0  0
  8  9  1  0  0  0  0
  8 11  1  0  0  0  0
  9 10  2  0  0  0  0
  9 16  1  0  0  0  0
 10 17  1  0  0  0  0
 10 18  1  0  0  0  0
 11 19  1  0  0  0  0
M  END
