
  xtb     02012213393D
 xtb: 6.4.1 (23d549d)
 31 33  0     0  0            999 V2000
    3.6820   -0.3290    0.9711 c   0  0  0  0  0  0  0  0  0  0  0  0
    2.5091   -0.1172    0.0136 c   0  0  0  0  0  0  0  0  0  0  0  0
    2.8250    0.8401   -1.0111 n   0  0  0  0  0  0  0  0  0  0  0  0
    3.4622    0.5633   -2.1971 c   0  0  0  0  0  0  0  0  0  0  0  0
    3.6719    1.7685   -2.9102 c   0  0  0  0  0  0  0  0  0  0  0  0
    4.2919    1.7429   -4.1526 c   0  0  0  0  0  0  0  0  0  0  0  0
    4.6958    0.5273   -4.6665 c   0  0  0  0  0  0  0  0  0  0  0  0
    4.4893   -0.6540   -3.9571 c   0  0  0  0  0  0  0  0  0  0  0  0
    3.8750   -0.6551   -2.7200 c   0  0  0  0  0  0  0  0  0  0  0  0
    2.6442    2.2011   -0.9212 c   0  0  0  0  0  0  0  0  0  0  0  0
    3.1457    2.8206   -2.0888 c   0  0  0  0  0  0  0  0  0  0  0  0
    3.0657    4.1994   -2.2381 c   0  0  0  0  0  0  0  0  0  0  0  0
    2.4940    4.9584   -1.2334 c   0  0  0  0  0  0  0  0  0  0  0  0
    2.3894    6.4504   -1.3538 c   0  0  0  0  0  0  0  0  0  0  0  0
    2.0057    4.3274   -0.0842 c   0  0  0  0  0  0  0  0  0  0  0  0
    2.0719    2.9602    0.0905 c   0  0  0  0  0  0  0  0  0  0  0  0
    3.4188   -1.0574    1.7335 h   0  0  0  0  0  0  0  0  0  0  0  0
    3.9440    0.6086    1.4564 h   0  0  0  0  0  0  0  0  0  0  0  0
    4.5515   -0.6890    0.4260 h   0  0  0  0  0  0  0  0  0  0  0  0
    1.6371    0.2426    0.5656 h   0  0  0  0  0  0  0  0  0  0  0  0
    2.2395   -1.0629   -0.4645 h   0  0  0  0  0  0  0  0  0  0  0  0
    4.4542    2.6585   -4.7014 h   0  0  0  0  0  0  0  0  0  0  0  0
    5.1809    0.4859   -5.6307 h   0  0  0  0  0  0  0  0  0  0  0  0
    4.8197   -1.5903   -4.3833 h   0  0  0  0  0  0  0  0  0  0  0  0
    3.7269   -1.5800   -2.1822 h   0  0  0  0  0  0  0  0  0  0  0  0
    3.4495    4.6701   -3.1314 h   0  0  0  0  0  0  0  0  0  0  0  0
    2.8263    6.7957   -2.2872 h   0  0  0  0  0  0  0  0  0  0  0  0
    2.9065    6.9370   -0.5275 h   0  0  0  0  0  0  0  0  0  0  0  0
    1.3461    6.7630   -1.3229 h   0  0  0  0  0  0  0  0  0  0  0  0
    1.5645    4.9362    0.6924 h   0  0  0  0  0  0  0  0  0  0  0  0
    1.6894    2.5054    0.9922 h   0  0  0  0  0  0  0  0  0  0  0  0
  1  2  1  0  0  0  0
  2  3  1  0  0  0  0
  3  4  1  0  0  0  0
  4  5  4  0  0  0  0
  5  6  4  0  0  0  0
  6  7  4  0  0  0  0
  7  8  4  0  0  0  0
  4  9  4  0  0  0  0
  8  9  4  0  0  0  0
  3 10  1  0  0  0  0
  5 11  1  0  0  0  0
 10 11  4  0  0  0  0
 11 12  4  0  0  0  0
 12 13  4  0  0  0  0
 13 14  1  0  0  0  0
 13 15  4  0  0  0  0
 10 16  4  0  0  0  0
 15 16  4  0  0  0  0
  1 17  1  0  0  0  0
  1 18  1  0  0  0  0
  1 19  1  0  0  0  0
  2 20  1  0  0  0  0
  2 21  1  0  0  0  0
  6 22  1  0  0  0  0
  7 23  1  0  0  0  0
  8 24  1  0  0  0  0
  9 25  1  0  0  0  0
 12 26  1  0  0  0  0
 14 27  1  0  0  0  0
 14 28  1  0  0  0  0
 14 29  1  0  0  0  0
 15 30  1  0  0  0  0
 16 31  1  0  0  0  0
M  END
