
  xtb     02012213523D
 xtb: 6.4.1 (23d549d)
 21 21  0     0  0            999 V2000
   -2.4009    1.1890    0.1477 c   0  0  0  0  0  0  0  0  0  0  0  0
   -1.1779    0.3303    0.0542 c   0  0  0  0  0  0  0  0  0  0  0  0
   -1.2601   -1.0562    0.0157 c   0  0  0  0  0  0  0  0  0  0  0  0
   -0.0886   -1.7984   -0.0664 c   0  0  0  0  0  0  0  0  0  0  0  0
   -0.1342   -3.3056   -0.1005 c   0  0  0  0  0  0  0  0  0  0  0  0
    1.0089   -3.9046   -0.6576 o   0  0  0  0  0  0  0  0  0  0  0  0
    1.1189   -1.1162   -0.1076 c   0  0  0  0  0  0  0  0  0  0  0  0
    1.1099    0.2740   -0.0680 c   0  0  0  0  0  0  0  0  0  0  0  0
    2.3788    1.0675   -0.1023 c   0  0  0  0  0  0  0  0  0  0  0  0
   -0.0160    0.9682    0.0084 n   0  0  0  0  0  0  0  0  0  0  0  0
   -3.3051    0.5871    0.1274 h   0  0  0  0  0  0  0  0  0  0  0  0
   -2.4173    1.8969   -0.6782 h   0  0  0  0  0  0  0  0  0  0  0  0
   -2.3731    1.7646    1.0709 h   0  0  0  0  0  0  0  0  0  0  0  0
   -2.2196   -1.5511    0.0488 h   0  0  0  0  0  0  0  0  0  0  0  0
   -1.0427   -3.6319   -0.6295 h   0  0  0  0  0  0  0  0  0  0  0  0
   -0.1900   -3.6856    0.9252 h   0  0  0  0  0  0  0  0  0  0  0  0
    1.1229   -3.5763   -1.5570 h   0  0  0  0  0  0  0  0  0  0  0  0
    2.0484   -1.6628   -0.1607 h   0  0  0  0  0  0  0  0  0  0  0  0
    3.2378    0.4266   -0.2802 h   0  0  0  0  0  0  0  0  0  0  0  0
    2.5105    1.5850    0.8464 h   0  0  0  0  0  0  0  0  0  0  0  0
    2.3194    1.8241   -0.8815 h   0  0  0  0  0  0  0  0  0  0  0  0
  1  2  1  0  0  0  0
  2  3  4  0  0  0  0
  3  4  4  0  0  0  0
  4  5  1  0  0  0  0
  5  6  1  0  0  0  0
  4  7  4  0  0  0  0
  7  8  4  0  0  0  0
  8  9  1  0  0  0  0
  2 10  4  0  0  0  0
  8 10  4  0  0  0  0
  1 11  1  0  0  0  0
  1 12  1  0  0  0  0
  1 13  1  0  0  0  0
  3 14  1  0  0  0  0
  5 15  1  0  0  0  0
  5 16  1  0  0  0  0
  6 17  1  0  0  0  0
  7 18  1  0  0  0  0
  9 19  1  0  0  0  0
  9 20  1  0  0  0  0
  9 21  1  0  0  0  0
M  END
