26

C          1.08640        0.27595        0.23328
C          2.31510       -0.24390        0.10800
C          3.11780       -0.24590       -1.14720
C          4.38890       -0.84510       -1.12350
C          5.19870       -0.88930       -2.27140
C          6.53150       -1.54840       -2.16850
C          7.41554       -1.65533       -3.16970
C          4.71530       -0.31790       -3.46420
C          3.45340        0.28350       -3.50100
S          2.83360        0.99080       -5.02900
C          3.74699        0.98997       -6.59499
O          1.45070        0.37462       -5.29289
O          2.39177        2.43378       -4.73821
C          2.65820        0.31880       -2.35210
H          0.58183        0.22585        1.19301
H          0.55787        0.74976       -0.58289
H          2.75094       -0.69925        0.99323
H          4.75120       -1.28490       -0.20080
H          6.81585       -1.97741       -1.21134
H          7.23692       -1.26226       -4.16151
H          8.36230       -2.15589       -2.99349
H          5.29900       -0.33370       -4.37090
H          3.91923       -0.05625       -6.92128
H          4.71614        1.51209       -6.45715
H          3.15571        1.52059       -7.37083
H          1.68830        0.78670       -2.42040
26

C          1.44846       -1.20075        0.46717
C          2.31510       -0.24390        0.10800
C          3.11780       -0.24590       -1.14720
C          4.38890       -0.84510       -1.12350
C          5.19870       -0.88930       -2.27140
C          6.53150       -1.54840       -2.16850
C          6.76757       -2.84611       -2.40425
C          4.71530       -0.31790       -3.46420
C          3.45340        0.28350       -3.50100
S          2.83360        0.99080       -5.02900
C          3.74699        0.98997       -6.59499
O          1.45070        0.37462       -5.29289
O          2.39177        2.43378       -4.73821
C          2.65820        0.31880       -2.35210
H          0.91135       -1.10830        1.40587
H          1.25118       -2.07736       -0.13501
H          2.43801        0.59231        0.79106
H          4.75120       -1.28490       -0.20080
H          7.38235       -0.93643       -1.88108
H          5.99549       -3.54422       -2.69857
H          7.77698       -3.23143       -2.30136
H          5.29900       -0.33370       -4.37090
H          3.91923       -0.05625       -6.92128
H          4.71614        1.51209       -6.45715
H          3.15571        1.52059       -7.37083
H          1.68830        0.78670       -2.42040
26

C          2.34402        0.72155        1.03682
C          2.31510       -0.24390        0.10800
C          3.11780       -0.24590       -1.14720
C          4.38890       -0.84510       -1.12350
C          5.19870       -0.88930       -2.27140
C          6.53150       -1.54840       -2.16850
C          7.67261       -0.92785       -1.83964
C          4.71530       -0.31790       -3.46420
C          3.45340        0.28350       -3.50100
S          2.83360        0.99080       -5.02900
C          3.74699        0.98997       -6.59499
O          1.45070        0.37462       -5.29289
O          2.39177        2.43378       -4.73821
C          2.65820        0.31880       -2.35210
H          1.71803        0.63135        1.91896
H          2.96555        1.60306        0.95547
H          1.65097       -1.08449        0.29042
H          4.75120       -1.28490       -0.20080
H          6.59087       -2.61389       -2.37409
H          7.72783        0.12836       -1.61275
H          8.59482       -1.49814       -1.79213
H          5.29900       -0.33370       -4.37090
H          3.91923       -0.05625       -6.92128
H          4.71614        1.51209       -6.45715
H          3.15571        1.52059       -7.37083
H          1.68830        0.78670       -2.42040
26

C          2.71059       -0.77356        1.27362
C          2.31510       -0.24390        0.10800
C          3.11780       -0.24590       -1.14720
C          4.38890       -0.84510       -1.12350
C          5.19870       -0.88930       -2.27140
C          6.53150       -1.54840       -2.16850
C          7.02785       -2.10955       -1.05760
C          4.71530       -0.31790       -3.46420
C          3.45340        0.28350       -3.50100
S          2.83360        0.99080       -5.02900
C          3.74699        0.98997       -6.59499
O          1.45070        0.37462       -5.29289
O          2.39177        2.43378       -4.73821
C          2.65820        0.31880       -2.35210
H          2.05167       -0.71944        2.13448
H          3.66752       -1.25932        1.40893
H          1.33415        0.22318        0.08573
H          4.75120       -1.28490       -0.20080
H          7.15456       -1.58085       -3.05833
H          6.49253       -2.13625       -0.11801
H          8.01240       -2.56547       -1.08500
H          5.29900       -0.33370       -4.37090
H          3.91923       -0.05625       -6.92128
H          4.71614        1.51209       -6.45715
H          3.15571        1.52059       -7.37083
H          1.68830        0.78670       -2.42040
26

C          2.34402        0.72155        1.03682
C          2.31510       -0.24390        0.10800
C          3.11780       -0.24590       -1.14720
C          4.38890       -0.84510       -1.12350
C          5.19870       -0.88930       -2.27140
C          6.53150       -1.54840       -2.16850
C          7.02785       -2.10955       -1.05760
C          4.71530       -0.31790       -3.46420
C          3.45340        0.28350       -3.50100
S          2.83360        0.99080       -5.02900
C          1.31429        0.45091       -5.85775
O          2.74239        2.51161       -4.82764
O          3.97251        0.96235       -6.06052
C          2.65820        0.31880       -2.35210
H          1.71803        0.63135        1.91896
H          2.96555        1.60306        0.95547
H          1.65097       -1.08449        0.29042
H          4.75120       -1.28490       -0.20080
H          7.15456       -1.58085       -3.05833
H          6.49253       -2.13625       -0.11801
H          8.01240       -2.56547       -1.08500
H          5.29900       -0.33370       -4.37090
H          0.44571        0.63463       -5.19252
H          1.38950       -0.62936       -6.09903
H          1.17982        1.02475       -6.79887
H          1.68830        0.78670       -2.42040
26

C          1.08640        0.27595        0.23328
C          2.31510       -0.24390        0.10800
C          3.11780       -0.24590       -1.14720
C          4.38890       -0.84510       -1.12350
C          5.19870       -0.88930       -2.27140
C          6.53150       -1.54840       -2.16850
C          6.82902       -2.55504       -1.33572
C          4.71530       -0.31790       -3.46420
C          3.45340        0.28350       -3.50100
S          2.83360        0.99080       -5.02900
C          1.31429        0.45091       -5.85775
O          2.74239        2.51161       -4.82764
O          3.97251        0.96235       -6.06052
C          2.65820        0.31880       -2.35210
H          0.58183        0.22585        1.19301
H          0.55787        0.74976       -0.58289
H          2.75094       -0.69925        0.99323
H          4.75120       -1.28490       -0.20080
H          7.32847       -1.19124       -2.81529
H          6.11209       -2.98887       -0.65169
H          7.83270       -2.96806       -1.33608
H          5.29900       -0.33370       -4.37090
H          0.44571        0.63463       -5.19252
H          1.38950       -0.62936       -6.09903
H          1.17982        1.02475       -6.79887
H          1.68830        0.78670       -2.42040
26

C          2.34402        0.72155        1.03682
C          2.31510       -0.24390        0.10800
C          3.11780       -0.24590       -1.14720
C          4.38890       -0.84510       -1.12350
C          5.19870       -0.88930       -2.27140
C          6.53150       -1.54840       -2.16850
C          7.61246       -1.21277       -2.88560
C          4.71530       -0.31790       -3.46420
C          3.45340        0.28350       -3.50100
S          2.83360        0.99080       -5.02900
C          2.56195        0.04513       -6.55167
O          1.52751        1.72943       -4.69691
O          3.70553        2.20800       -5.37562
C          2.65820        0.31880       -2.35210
H          1.71803        0.63135        1.91896
H          2.96555        1.60306        0.95547
H          1.65097       -1.08449        0.29042
H          4.75120       -1.28490       -0.20080
H          6.64362       -2.36446       -1.45960
H          7.61369       -0.41527       -3.61641
H          8.54028       -1.75595       -2.73702
H          5.29900       -0.33370       -4.37090
H          1.79124       -0.73207       -6.37094
H          3.51479       -0.42728       -6.86757
H          2.21051        0.72643       -7.35504
H          1.68830        0.78670       -2.42040
26

C          2.34402        0.72155        1.03682
C          2.31510       -0.24390        0.10800
C          3.11780       -0.24590       -1.14720
C          4.38890       -0.84510       -1.12350
C          5.19870       -0.88930       -2.27140
C          6.53150       -1.54840       -2.16850
C          7.67261       -0.92785       -1.83964
C          4.71530       -0.31790       -3.46420
C          3.45340        0.28350       -3.50100
S          2.83360        0.99080       -5.02900
C          2.56195        0.04513       -6.55167
O          1.52751        1.72943       -4.69691
O          3.70553        2.20800       -5.37562
C          2.65820        0.31880       -2.35210
H          1.71803        0.63135        1.91896
H          2.96555        1.60306        0.95547
H          1.65097       -1.08449        0.29042
H          4.75120       -1.28490       -0.20080
H          6.59087       -2.61389       -2.37409
H          7.72783        0.12836       -1.61275
H          8.59482       -1.49814       -1.79213
H          5.29900       -0.33370       -4.37090
H          1.79124       -0.73207       -6.37094
H          3.51479       -0.42728       -6.86757
H          2.21051        0.72643       -7.35504
H          1.68830        0.78670       -2.42040
26

C          2.34402        0.72155        1.03682
C          2.31510       -0.24390        0.10800
C          3.11780       -0.24590       -1.14720
C          4.38890       -0.84510       -1.12350
C          5.19870       -0.88930       -2.27140
C          6.53150       -1.54840       -2.16850
C          7.67261       -0.92785       -1.83964
C          4.71530       -0.31790       -3.46420
C          3.45340        0.28350       -3.50100
S          2.83360        0.99080       -5.02900
C          1.31429        0.45091       -5.85775
O          2.74239        2.51161       -4.82764
O          3.97251        0.96235       -6.06052
C          2.65820        0.31880       -2.35210
H          1.71803        0.63135        1.91896
H          2.96555        1.60306        0.95547
H          1.65097       -1.08449        0.29042
H          4.75120       -1.28490       -0.20080
H          6.59087       -2.61389       -2.37409
H          7.72783        0.12836       -1.61275
H          8.59482       -1.49814       -1.79213
H          5.29900       -0.33370       -4.37090
H          0.44571        0.63463       -5.19252
H          1.38950       -0.62936       -6.09903
H          1.17982        1.02475       -6.79887
H          1.68830        0.78670       -2.42040
26

C          2.34402        0.72155        1.03682
C          2.31510       -0.24390        0.10800
C          3.11780       -0.24590       -1.14720
C          4.38890       -0.84510       -1.12350
C          5.19870       -0.88930       -2.27140
C          6.53150       -1.54840       -2.16850
C          6.76757       -2.84611       -2.40425
C          4.71530       -0.31790       -3.46420
C          3.45340        0.28350       -3.50100
S          2.83360        0.99080       -5.02900
C          2.56195        0.04513       -6.55167
O          1.52751        1.72943       -4.69691
O          3.70553        2.20800       -5.37562
C          2.65820        0.31880       -2.35210
H          1.71803        0.63135        1.91896
H          2.96555        1.60306        0.95547
H          1.65097       -1.08449        0.29042
H          4.75120       -1.28490       -0.20080
H          7.38235       -0.93643       -1.88108
H          5.99549       -3.54422       -2.69857
H          7.77698       -3.23143       -2.30136
H          5.29900       -0.33370       -4.37090
H          1.79124       -0.73207       -6.37094
H          3.51479       -0.42728       -6.86757
H          2.21051        0.72643       -7.35504
H          1.68830        0.78670       -2.42040
