
  xtb     02032211363D
 xtb: 6.4.1 (23d549d)
 23 24  0     0  0            999 V2000
   -3.9506   -0.5039    0.3346 C   0  0  0  0  0  0  0  0  0  0  0  0
   -2.9224   -1.2278   -0.1004 C   0  0  0  0  0  0  0  0  0  0  0  0
   -1.5349   -0.8391   -0.0858 C   0  0  0  0  0  0  0  0  0  0  0  0
   -0.5634   -1.8134   -0.0659 N   0  0  0  0  0  0  0  0  0  0  0  0
    0.6535   -1.2389   -0.0215 C   0  0  0  0  0  0  0  0  0  0  0  0
    1.8222   -1.9229    0.0098 N   0  0  0  0  0  0  0  0  0  0  0  0
    2.8703   -1.1768    0.0286 C   0  0  0  0  0  0  0  0  0  0  0  0
    2.8415    0.1758    0.0217 N   0  0  0  0  0  0  0  0  0  0  0  0
    1.6760    0.9727   -0.0029 C   0  0  0  0  0  0  0  0  0  0  0  0
    1.8072    2.1785    0.0052 O   0  0  0  0  0  0  0  0  0  0  0  0
    0.4906    0.1570   -0.0256 C   0  0  0  0  0  0  0  0  0  0  0  0
   -0.9150    0.4093   -0.0777 C   0  0  0  0  0  0  0  0  0  0  0  0
   -1.6098    1.6724   -0.2100 C   0  0  0  0  0  0  0  0  0  0  0  0
   -1.1445    2.8627    0.1488 C   0  0  0  0  0  0  0  0  0  0  0  0
   -4.9578   -0.8789    0.2761 H   0  0  0  0  0  0  0  0  0  0  0  0
   -3.8222    0.4671    0.7781 H   0  0  0  0  0  0  0  0  0  0  0  0
   -3.1030   -2.2269   -0.4827 H   0  0  0  0  0  0  0  0  0  0  0  0
   -0.7301   -2.8063   -0.0510 H   0  0  0  0  0  0  0  0  0  0  0  0
    3.8399   -1.6537    0.0508 H   0  0  0  0  0  0  0  0  0  0  0  0
    3.7065    0.7022    0.0362 H   0  0  0  0  0  0  0  0  0  0  0  0
   -2.5951    1.5888   -0.6525 H   0  0  0  0  0  0  0  0  0  0  0  0
   -0.1708    2.9880    0.5859 H   0  0  0  0  0  0  0  0  0  0  0  0
   -1.7277    3.7552   -0.0044 H   0  0  0  0  0  0  0  0  0  0  0  0
  1  2  2  0  0  0  0
  2  3  1  0  0  0  0
  3  4  1  0  0  0  0
  4  5  4  0  0  0  0
  5  6  4  0  0  0  0
  6  7  2  0  0  0  0
  7  8  4  0  0  0  0
  8  9  1  0  0  0  0
  9 10  2  0  0  0  0
  5 11  4  0  0  0  0
  9 11  1  0  0  0  0
  3 12  4  0  0  0  0
 11 12  4  0  0  0  0
 12 13  1  0  0  0  0
 13 14  2  0  0  0  0
  1 15  1  0  0  0  0
  1 16  1  0  0  0  0
  2 17  1  0  0  0  0
  4 18  1  0  0  0  0
  7 19  1  0  0  0  0
  8 20  1  0  0  0  0
 13 21  1  0  0  0  0
 14 22  1  0  0  0  0
 14 23  1  0  0  0  0
M  END
