
  xtb     02032211343D
 xtb: 6.4.1 (23d549d)
 47 49  0     0  0            999 V2000
    4.2982   -1.7779   -1.8706 C   0  0  0  0  0  0  0  0  0  0  0  0
    3.3671   -2.4863   -1.0650 O   0  0  0  0  0  0  0  0  0  0  0  0
    2.0988   -2.0634   -1.1322 C   0  0  0  0  0  0  0  0  0  0  0  0
    1.2034   -2.8739   -0.2638 C   0  0  0  0  0  0  0  0  0  0  0  0
    0.2014   -2.2611    0.5036 C   0  0  0  0  0  0  0  0  0  0  0  0
    0.1190   -0.8675    0.6050 N   0  0  0  0  0  0  0  0  0  0  0  0
    1.2842   -0.1132    0.7148 C   0  0  0  0  0  0  0  0  0  0  0  0
    1.3781    1.1417    0.1119 C   0  0  0  0  0  0  0  0  0  0  0  0
    2.5544    1.8606    0.2138 C   0  0  0  0  0  0  0  0  0  0  0  0
    2.6867    3.2032   -0.4453 C   0  0  0  0  0  0  0  0  0  0  0  0
    1.5504    3.6508   -0.9923 F   0  0  0  0  0  0  0  0  0  0  0  0
    3.0864    4.1539    0.4234 F   0  0  0  0  0  0  0  0  0  0  0  0
    3.6084    3.1968   -1.4273 F   0  0  0  0  0  0  0  0  0  0  0  0
    3.6542    1.3575    0.9001 C   0  0  0  0  0  0  0  0  0  0  0  0
    3.5550    0.1139    1.4992 C   0  0  0  0  0  0  0  0  0  0  0  0
    2.3843   -0.6142    1.4150 C   0  0  0  0  0  0  0  0  0  0  0  0
   -1.1332   -0.2467    0.5549 C   0  0  0  0  0  0  0  0  0  0  0  0
   -1.3953    0.8905    1.3197 C   0  0  0  0  0  0  0  0  0  0  0  0
   -2.6343    1.4896    1.2702 C   0  0  0  0  0  0  0  0  0  0  0  0
   -3.6578    0.9757    0.4686 C   0  0  0  0  0  0  0  0  0  0  0  0
   -4.9400    1.6564    0.4722 C   0  0  0  0  0  0  0  0  0  0  0  0
   -6.0562    1.3172   -0.1571 C   0  0  0  0  0  0  0  0  0  0  0  0
   -6.2676    0.2662   -0.9415 F   0  0  0  0  0  0  0  0  0  0  0  0
   -7.1817    2.0253   -0.0742 F   0  0  0  0  0  0  0  0  0  0  0  0
   -3.3876   -0.1646   -0.2928 C   0  0  0  0  0  0  0  0  0  0  0  0
   -2.1472   -0.7632   -0.2519 C   0  0  0  0  0  0  0  0  0  0  0  0
   -0.6950   -3.0638    1.2085 C   0  0  0  0  0  0  0  0  0  0  0  0
   -0.5915   -4.4399    1.1629 C   0  0  0  0  0  0  0  0  0  0  0  0
    0.4208   -5.0430    0.4314 C   0  0  0  0  0  0  0  0  0  0  0  0
    1.3138   -4.2597   -0.2755 C   0  0  0  0  0  0  0  0  0  0  0  0
    1.7360   -1.1563   -1.8384 O   0  0  0  0  0  0  0  0  0  0  0  0
    5.2569   -2.2703   -1.7316 H   0  0  0  0  0  0  0  0  0  0  0  0
    4.3520   -0.7342   -1.5530 H   0  0  0  0  0  0  0  0  0  0  0  0
    3.9953   -1.8099   -2.9189 H   0  0  0  0  0  0  0  0  0  0  0  0
    0.5463    1.5322   -0.4524 H   0  0  0  0  0  0  0  0  0  0  0  0
    4.5642    1.9335    0.9593 H   0  0  0  0  0  0  0  0  0  0  0  0
    4.3967   -0.2900    2.0403 H   0  0  0  0  0  0  0  0  0  0  0  0
    2.3163   -1.5817    1.8903 H   0  0  0  0  0  0  0  0  0  0  0  0
   -0.6234    1.2966    1.9564 H   0  0  0  0  0  0  0  0  0  0  0  0
   -2.8206    2.3678    1.8704 H   0  0  0  0  0  0  0  0  0  0  0  0
   -5.0057    2.5573    1.0651 H   0  0  0  0  0  0  0  0  0  0  0  0
   -4.1451   -0.5836   -0.9339 H   0  0  0  0  0  0  0  0  0  0  0  0
   -1.9484   -1.6334   -0.8588 H   0  0  0  0  0  0  0  0  0  0  0  0
   -1.4680   -2.5932    1.7977 H   0  0  0  0  0  0  0  0  0  0  0  0
   -1.2950   -5.0453    1.7142 H   0  0  0  0  0  0  0  0  0  0  0  0
    0.5089   -6.1179    0.4090 H   0  0  0  0  0  0  0  0  0  0  0  0
    2.0959   -4.7144   -0.8635 H   0  0  0  0  0  0  0  0  0  0  0  0
  1  2  1  0  0  0  0
  2  3  1  0  0  0  0
  3  4  1  0  0  0  0
  4  5  4  0  0  0  0
  5  6  1  0  0  0  0
  6  7  1  0  0  0  0
  7  8  4  0  0  0  0
  8  9  4  0  0  0  0
  9 10  1  0  0  0  0
 10 11  1  0  0  0  0
 10 12  1  0  0  0  0
 10 13  1  0  0  0  0
  9 14  4  0  0  0  0
 14 15  4  0  0  0  0
  7 16  4  0  0  0  0
 15 16  4  0  0  0  0
  6 17  1  0  0  0  0
 17 18  4  0  0  0  0
 18 19  4  0  0  0  0
 19 20  4  0  0  0  0
 20 21  1  0  0  0  0
 21 22  2  0  0  0  0
 22 23  1  0  0  0  0
 22 24  1  0  0  0  0
 20 25  4  0  0  0  0
 17 26  4  0  0  0  0
 25 26  4  0  0  0  0
  5 27  4  0  0  0  0
 27 28  4  0  0  0  0
 28 29  4  0  0  0  0
  4 30  4  0  0  0  0
 29 30  4  0  0  0  0
  3 31  2  0  0  0  0
  1 32  1  0  0  0  0
  1 33  1  0  0  0  0
  1 34  1  0  0  0  0
  8 35  1  0  0  0  0
 14 36  1  0  0  0  0
 15 37  1  0  0  0  0
 16 38  1  0  0  0  0
 18 39  1  0  0  0  0
 19 40  1  0  0  0  0
 21 41  1  0  0  0  0
 25 42  1  0  0  0  0
 26 43  1  0  0  0  0
 27 44  1  0  0  0  0
 28 45  1  0  0  0  0
 29 46  1  0  0  0  0
 30 47  1  0  0  0  0
M  END
