32

C          2.55272        0.00648        0.13815
C          1.05311        0.02005        0.09568
C          0.30754       -1.00530        0.69275
C         -1.08890       -0.98082        0.64501
C         -1.77100        0.06930        0.00440
C         -3.26310        0.03360       -0.00610
C         -4.05800        1.12510       -0.02050
C         -5.55050        1.08930       -0.02700
C         -6.23998        2.15095        0.58698
C         -7.63646        2.17545        0.61812
C         -8.37511        1.14048        0.03093
C         -9.87492        1.15430        0.05538
C         -7.69967        0.08037       -0.58680
C         -6.30216        0.05010       -0.61645
C         -1.01220        1.09819       -0.59416
C          0.38495        1.06883       -0.54791
H          2.93739       -0.88157        0.68358
H          2.91969        0.92013        0.65193
H          2.95498       -0.01506       -0.89649
H          0.80454       -1.82551        1.19565
H         -1.63908       -1.78686        1.11505
H         -3.71090       -0.95080        0.01100
H         -3.61030        2.10960       -0.01560
H         -5.69484        2.96505        1.04944
H         -8.13934        3.00480        1.10090
H        -10.26655        2.05169        0.58089
H        -10.24817        0.24943        0.58096
H        -10.26576        1.15735       -0.98415
H         -8.25813       -0.72636       -1.04678
H         -5.83461       -0.78891       -1.10671
H         -1.47390        1.92887       -1.10476
H          0.94880        1.86748       -1.01558
32

C          2.54800        0.17662        0.23049
C          1.04982        0.13857        0.16113
C          0.27604        0.12374        1.32938
C         -1.11871        0.08732        1.25043
C         -1.77100        0.06930        0.00440
C         -3.26310        0.03360       -0.00610
C         -4.05800        1.12510       -0.02050
C         -5.55050        1.08930       -0.02700
C         -6.21734        1.09332        1.21186
C         -7.61250        1.05747        1.27464
C         -8.37256        1.02195        0.09880
C         -9.87127        0.98479        0.15089
C         -7.71984        1.02171       -1.14040
C         -6.32365        1.05336       -1.20739
C         -0.98392        0.08473       -1.16732
C          0.41149        0.11739       -1.08493
H          2.90745        0.19394        1.28148
H          2.92228        1.08714       -0.28357
H          2.96747       -0.72151       -0.26969
H          0.74972        0.13980        2.30304
H         -1.69109        0.07644        2.17000
H         -3.71090       -0.95080        0.01100
H         -3.61030        2.10960       -0.01560
H         -5.65533        1.12022        2.13773
H         -8.09763        1.05847        2.24337
H        -10.24367        0.98554        1.19787
H        -10.23968        0.06497       -0.35166
H        -10.28561        1.87377       -0.37010
H         -8.29504        0.99625       -2.05842
H         -5.87409        1.05331       -2.18759
H         -1.42200        0.06760       -2.15307
H          0.99736        0.12659       -1.99661
32

C          2.54800        0.17662        0.23049
C          1.04982        0.13857        0.16113
C          0.27604        0.12374        1.32938
C         -1.11871        0.08732        1.25043
C         -1.77100        0.06930        0.00440
C         -3.26310        0.03360       -0.00610
C         -4.05800        1.12510       -0.02050
C         -5.55050        1.08930       -0.02700
C         -6.23998        2.15095        0.58698
C         -7.63646        2.17545        0.61812
C         -8.37511        1.14048        0.03093
C         -9.87492        1.15430        0.05538
C         -7.69967        0.08037       -0.58680
C         -6.30216        0.05010       -0.61645
C         -0.98392        0.08473       -1.16732
C          0.41149        0.11739       -1.08493
H          2.90745        0.19394        1.28148
H          2.92228        1.08714       -0.28357
H          2.96747       -0.72151       -0.26969
H          0.74972        0.13980        2.30304
H         -1.69109        0.07644        2.17000
H         -3.71090       -0.95080        0.01100
H         -3.61030        2.10960       -0.01560
H         -5.69484        2.96505        1.04944
H         -8.13934        3.00480        1.10090
H        -10.26655        2.05169        0.58089
H        -10.24817        0.24943        0.58096
H        -10.26576        1.15735       -0.98415
H         -8.25813       -0.72636       -1.04678
H         -5.83461       -0.78891       -1.10671
H         -1.42200        0.06760       -2.15307
H          0.99736        0.12659       -1.99661
32

C          2.55272        0.00648        0.13815
C          1.05311        0.02005        0.09568
C          0.30754       -1.00530        0.69275
C         -1.08890       -0.98082        0.64501
C         -1.77100        0.06930        0.00440
C         -3.26310        0.03360       -0.00610
C         -4.05800        1.12510       -0.02050
C         -5.55050        1.08930       -0.02700
C         -6.21734        1.09332        1.21186
C         -7.61250        1.05747        1.27464
C         -8.37256        1.02195        0.09880
C         -9.87127        0.98479        0.15089
C         -7.71984        1.02171       -1.14040
C         -6.32365        1.05336       -1.20739
C         -1.01220        1.09819       -0.59416
C          0.38495        1.06883       -0.54791
H          2.93739       -0.88157        0.68358
H          2.91969        0.92013        0.65193
H          2.95498       -0.01506       -0.89649
H          0.80454       -1.82551        1.19565
H         -1.63908       -1.78686        1.11505
H         -3.71090       -0.95080        0.01100
H         -3.61030        2.10960       -0.01560
H         -5.65533        1.12022        2.13773
H         -8.09763        1.05847        2.24337
H        -10.24367        0.98554        1.19787
H        -10.23968        0.06497       -0.35166
H        -10.28561        1.87377       -0.37010
H         -8.29504        0.99625       -2.05842
H         -5.87409        1.05331       -2.18759
H         -1.47390        1.92887       -1.10476
H          0.94880        1.86748       -1.01558
32

C          2.54800        0.17662        0.23049
C          1.04982        0.13857        0.16113
C          0.27604        0.12374        1.32938
C         -1.11871        0.08732        1.25043
C         -1.77100        0.06930        0.00440
C         -3.26310        0.03360       -0.00610
C         -4.05800        1.12510       -0.02050
C         -5.55050        1.08930       -0.02700
C         -6.18173       -0.16805       -0.01751
C         -7.57499       -0.27033       -0.02640
C         -8.36864        0.88358       -0.03980
C         -9.86570        0.78904       -0.04789
C         -7.75146        2.14084       -0.04522
C         -6.35737        2.24738       -0.04053
C         -0.98392        0.08473       -1.16732
C          0.41149        0.11739       -1.08493
H          2.90745        0.19394        1.28148
H          2.92228        1.08714       -0.28357
H          2.96747       -0.72151       -0.26969
H          0.74972        0.13980        2.30304
H         -1.69109        0.07644        2.17000
H         -3.71090       -0.95080        0.01100
H         -3.61030        2.10960       -0.01560
H         -5.59327       -1.07767       -0.00733
H         -8.03233       -1.25247       -0.02184
H        -10.20818       -0.26810       -0.04627
H        -10.26633        1.28602       -0.95721
H        -10.27701        1.29305        0.85221
H         -8.35285        3.04223       -0.05377
H         -5.93588        3.23997       -0.04337
H         -1.42200        0.06760       -2.15307
H          0.99736        0.12659       -1.99661
32

C          2.54800        0.17662        0.23049
C          1.04982        0.13857        0.16113
C          0.27604        0.12374        1.32938
C         -1.11871        0.08732        1.25043
C         -1.77100        0.06930        0.00440
C         -3.26310        0.03360       -0.00610
C         -4.05800        1.12510       -0.02050
C         -5.55050        1.08930       -0.02700
C         -6.18844        0.00053        0.59515
C         -7.58203       -0.09414        0.62069
C         -8.36937        0.90139        0.02857
C         -9.86672        0.81374        0.04968
C         -7.74551        1.99209       -0.59017
C         -6.35102        2.08838       -0.62146
C         -0.98392        0.08473       -1.16732
C          0.41149        0.11739       -1.08493
H          2.90745        0.19394        1.28148
H          2.92228        1.08714       -0.28357
H          2.96747       -0.72151       -0.26969
H          0.74972        0.13980        2.30304
H         -1.69109        0.07644        2.17000
H         -3.71090       -0.95080        0.01100
H         -3.61030        2.10960       -0.01560
H         -5.60495       -0.78447        1.06112
H         -8.04459       -0.94597        1.10462
H        -10.21478       -0.10462        0.56958
H        -10.25442        0.79562       -0.99134
H        -10.28549        1.69653        0.57761
H         -8.34199        2.77072       -1.05081
H         -5.92428        2.95011       -1.10952
H         -1.42200        0.06760       -2.15307
H          0.99736        0.12659       -1.99661
32

C          2.54469        0.34522        0.12708
C          1.04749        0.25702        0.08968
C          0.25351        1.26368        0.65533
C         -1.14011        1.16854        0.61435
C         -1.77100        0.06930        0.00440
C         -3.26310        0.03360       -0.00610
C         -4.05800        1.12510       -0.02050
C         -5.55050        1.08930       -0.02700
C         -6.21734        1.09332        1.21186
C         -7.61250        1.05747        1.27464
C         -8.37256        1.02195        0.09880
C         -9.87127        0.98479        0.15089
C         -7.71984        1.02171       -1.14040
C         -6.32365        1.05336       -1.20739
C         -0.96365       -0.94003       -0.56315
C          0.43049       -0.84372       -0.51718
H          2.88620        1.27228        0.63504
H          2.94444        0.34505       -0.90907
H          2.95619       -0.52806        0.67554
H          0.71052        2.12340        1.12935
H         -1.72838        1.96155        1.05980
H         -3.71090       -0.95080        0.01100
H         -3.61030        2.10960       -0.01560
H         -5.65533        1.12022        2.13773
H         -8.09763        1.05847        2.24337
H        -10.24367        0.98554        1.19787
H        -10.23968        0.06497       -0.35166
H        -10.28561        1.87377       -0.37010
H         -8.29504        0.99625       -2.05842
H         -5.87409        1.05331       -2.18759
H         -1.38488       -1.81059       -1.04127
H          1.03208       -1.63058       -0.95699
32

C          2.54483        0.36828        0.02962
C          1.04757        0.27364        0.02164
C          0.25414        1.42861        0.00534
C         -1.13955        1.32613       -0.00100
C         -1.77100        0.06930        0.00440
C         -3.26310        0.03360       -0.00610
C         -4.05800        1.12510       -0.02050
C         -5.55050        1.08930       -0.02700
C         -6.21734        1.09332        1.21186
C         -7.61250        1.05747        1.27464
C         -8.37256        1.02195        0.09880
C         -9.87127        0.98479        0.15089
C         -7.71984        1.02171       -1.14040
C         -6.32365        1.05336       -1.20739
C         -0.96420       -1.08892        0.02054
C          0.42997       -0.98297        0.03064
H          2.88689        1.42513        0.01703
H          2.95584       -0.14441       -0.86571
H          2.94453       -0.11966        0.94335
H          0.71162        2.41009       -0.00198
H         -1.72739        2.23588       -0.01349
H         -3.71090       -0.95080        0.01100
H         -3.61030        2.10960       -0.01560
H         -5.65533        1.12022        2.13773
H         -8.09763        1.05847        2.24337
H        -10.24367        0.98554        1.19787
H        -10.23968        0.06497       -0.35166
H        -10.28561        1.87377       -0.37010
H         -8.29504        0.99625       -2.05842
H         -5.87409        1.05331       -2.18759
H         -1.38593       -2.08188        0.03010
H          1.03111       -1.88458        0.04517
32

C          2.55272        0.00648        0.13815
C          1.05311        0.02005        0.09568
C          0.30754       -1.00530        0.69275
C         -1.08890       -0.98082        0.64501
C         -1.77100        0.06930        0.00440
C         -3.26310        0.03360       -0.00610
C         -4.05800        1.12510       -0.02050
C         -5.55050        1.08930       -0.02700
C         -6.18173       -0.16805       -0.01751
C         -7.57499       -0.27033       -0.02640
C         -8.36864        0.88358       -0.03980
C         -9.86570        0.78904       -0.04789
C         -7.75146        2.14084       -0.04522
C         -6.35737        2.24738       -0.04053
C         -1.01220        1.09819       -0.59416
C          0.38495        1.06883       -0.54791
H          2.93739       -0.88157        0.68358
H          2.91969        0.92013        0.65193
H          2.95498       -0.01506       -0.89649
H          0.80454       -1.82551        1.19565
H         -1.63908       -1.78686        1.11505
H         -3.71090       -0.95080        0.01100
H         -3.61030        2.10960       -0.01560
H         -5.59327       -1.07767       -0.00733
H         -8.03233       -1.25247       -0.02184
H        -10.20818       -0.26810       -0.04627
H        -10.26633        1.28602       -0.95721
H        -10.27701        1.29305        0.85221
H         -8.35285        3.04223       -0.05377
H         -5.93588        3.23997       -0.04337
H         -1.47390        1.92887       -1.10476
H          0.94880        1.86748       -1.01558
32

C          2.55272        0.00648        0.13815
C          1.05311        0.02005        0.09568
C          0.30754       -1.00530        0.69275
C         -1.08890       -0.98082        0.64501
C         -1.77100        0.06930        0.00440
C         -3.26310        0.03360       -0.00610
C         -4.05800        1.12510       -0.02050
C         -5.55050        1.08930       -0.02700
C         -6.18844        0.00053        0.59515
C         -7.58203       -0.09414        0.62069
C         -8.36937        0.90139        0.02857
C         -9.86672        0.81374        0.04968
C         -7.74551        1.99209       -0.59017
C         -6.35102        2.08838       -0.62146
C         -1.01220        1.09819       -0.59416
C          0.38495        1.06883       -0.54791
H          2.93739       -0.88157        0.68358
H          2.91969        0.92013        0.65193
H          2.95498       -0.01506       -0.89649
H          0.80454       -1.82551        1.19565
H         -1.63908       -1.78686        1.11505
H         -3.71090       -0.95080        0.01100
H         -3.61030        2.10960       -0.01560
H         -5.60495       -0.78447        1.06112
H         -8.04459       -0.94597        1.10462
H        -10.21478       -0.10462        0.56958
H        -10.25442        0.79562       -0.99134
H        -10.28549        1.69653        0.57761
H         -8.34199        2.77072       -1.05081
H         -5.92428        2.95011       -1.10952
H         -1.47390        1.92887       -1.10476
H          0.94880        1.86748       -1.01558
