
 OpenBabel02012214123D

 32 33  0  0  0  0  0  0  0  0999 V2000
    2.5540   -0.0221    0.0536 C   0  0  0  0  0  0  0  0  0  0  0  0
    1.0540    0.0005    0.0364 C   0  0  0  0  0  0  0  0  0  0  0  0
    0.3159   -1.1875    0.1236 C   0  0  0  0  0  0  0  0  0  0  0  0
   -1.0810   -1.1522    0.1055 C   0  0  0  0  0  0  0  0  0  0  0  0
   -1.7710    0.0693    0.0044 C   0  0  0  0  0  0  0  0  0  0  0  0
   -3.2631    0.0336   -0.0061 C   0  0  0  0  0  0  0  0  0  0  0  0
   -4.0580    1.1251   -0.0205 C   0  0  0  0  0  0  0  0  0  0  0  0
   -5.5505    1.0893   -0.0270 C   0  0  0  0  0  0  0  0  0  0  0  0
   -6.2415    2.3128    0.0439 C   0  0  0  0  0  0  0  0  0  0  0  0
   -7.6381    2.3478    0.0454 C   0  0  0  0  0  0  0  0  0  0  0  0
   -8.3753    1.1593   -0.0292 C   0  0  0  0  0  0  0  0  0  0  0  0
   -9.8752    1.1817   -0.0301 C   0  0  0  0  0  0  0  0  0  0  0  0
   -7.6983   -0.0645   -0.1043 C   0  0  0  0  0  0  0  0  0  0  0  0
   -6.3007   -0.1040   -0.1019 C   0  0  0  0  0  0  0  0  0  0  0  0
   -1.0197    1.2612   -0.0827 C   0  0  0  0  0  0  0  0  0  0  0  0
    0.3779    1.2222   -0.0681 C   0  0  0  0  0  0  0  0  0  0  0  0
    2.9454   -1.0578    0.1443 H   0  0  0  0  0  0  0  0  0  0  0  0
    2.9262    0.5706    0.9159 H   0  0  0  0  0  0  0  0  0  0  0  0
    2.9445    0.4201   -0.8870 H   0  0  0  0  0  0  0  0  0  0  0  0
    0.8191   -2.1429    0.2052 H   0  0  0  0  0  0  0  0  0  0  0  0
   -1.6253   -2.0862    0.1743 H   0  0  0  0  0  0  0  0  0  0  0  0
   -3.7109   -0.9508    0.0110 H   0  0  0  0  0  0  0  0  0  0  0  0
   -3.6103    2.1096   -0.0156 H   0  0  0  0  0  0  0  0  0  0  0  0
   -5.6975    3.2479    0.1027 H   0  0  0  0  0  0  0  0  0  0  0  0
   -8.1422    3.3050    0.1040 H   0  0  0  0  0  0  0  0  0  0  0  0
  -10.2682    2.2189    0.0378 H   0  0  0  0  0  0  0  0  0  0  0  0
  -10.2578    0.6042    0.8385 H   0  0  0  0  0  0  0  0  0  0  0  0
  -10.2554    0.7225   -0.9671 H   0  0  0  0  0  0  0  0  0  0  0  0
   -8.2556   -0.9919   -0.1643 H   0  0  0  0  0  0  0  0  0  0  0  0
   -5.8319   -1.0732   -0.1633 H   0  0  0  0  0  0  0  0  0  0  0  0
   -1.4877    2.2296   -0.1669 H   0  0  0  0  0  0  0  0  0  0  0  0
    0.9359    2.1486   -0.1382 H   0  0  0  0  0  0  0  0  0  0  0  0
  1  2  1  0  0  0  0
  1 17  1  0  0  0  0
  1 18  1  0  0  0  0
  1 19  1  0  0  0  0
  2  3  1  0  0  0  0
  2 16  2  0  0  0  0
  3  4  2  0  0  0  0
  3 20  1  0  0  0  0
  4  5  1  0  0  0  0
  4 21  1  0  0  0  0
  5  6  1  0  0  0  0
  5 15  2  0  0  0  0
  6  7  2  0  0  0  0
  6 22  1  0  0  0  0
  7  8  1  0  0  0  0
  7 23  1  0  0  0  0
  8  9  1  0  0  0  0
  8 14  2  0  0  0  0
  9 10  2  0  0  0  0
  9 24  1  0  0  0  0
 10 11  1  0  0  0  0
 10 25  1  0  0  0  0
 11 12  1  0  0  0  0
 11 13  2  0  0  0  0
 12 26  1  0  0  0  0
 12 27  1  0  0  0  0
 12 28  1  0  0  0  0
 13 14  1  0  0  0  0
 13 29  1  0  0  0  0
 14 30  1  0  0  0  0
 15 16  1  0  0  0  0
 15 31  1  0  0  0  0
 16 32  1  0  0  0  0
M  END
