
  xtb     02032211353D
 xtb: 6.4.1 (23d549d)
 22 22  0     0  0            999 V2000
    3.6263   -0.0206    0.4280 C   0  0  0  0  0  0  0  0  0  0  0  0
    2.5392   -0.4537   -0.1966 C   0  0  0  0  0  0  0  0  0  0  0  0
    1.2105    0.1482   -0.0812 C   0  0  0  0  0  0  0  0  0  0  0  0
    1.0745    1.5243    0.0698 C   0  0  0  0  0  0  0  0  0  0  0  0
   -0.1722    2.1160    0.1388 C   0  0  0  0  0  0  0  0  0  0  0  0
   -1.3060    1.3326    0.0382 C   0  0  0  0  0  0  0  0  0  0  0  0
   -1.2161   -0.0471   -0.1134 C   0  0  0  0  0  0  0  0  0  0  0  0
   -2.4281   -0.8534   -0.2624 C   0  0  0  0  0  0  0  0  0  0  0  0
   -3.5858   -0.6019    0.3340 C   0  0  0  0  0  0  0  0  0  0  0  0
    0.0545   -0.6522   -0.1500 C   0  0  0  0  0  0  0  0  0  0  0  0
    0.1665   -2.0255   -0.2658 N   0  0  0  0  0  0  0  0  0  0  0  0
    4.5861   -0.4876    0.2846 H   0  0  0  0  0  0  0  0  0  0  0  0
    3.5980    0.8093    1.1140 H   0  0  0  0  0  0  0  0  0  0  0  0
    2.6157   -1.3048   -0.8633 H   0  0  0  0  0  0  0  0  0  0  0  0
    1.9640    2.1349    0.1081 H   0  0  0  0  0  0  0  0  0  0  0  0
   -0.2599    3.1863    0.2496 H   0  0  0  0  0  0  0  0  0  0  0  0
   -2.2825    1.7930    0.0516 H   0  0  0  0  0  0  0  0  0  0  0  0
   -2.3505   -1.7035   -0.9304 H   0  0  0  0  0  0  0  0  0  0  0  0
   -3.7079    0.2195    1.0200 H   0  0  0  0  0  0  0  0  0  0  0  0
   -4.4547   -1.2157    0.1665 H   0  0  0  0  0  0  0  0  0  0  0  0
   -0.6410   -2.5580    0.0119 H   0  0  0  0  0  0  0  0  0  0  0  0
    1.0405   -2.4229    0.0356 H   0  0  0  0  0  0  0  0  0  0  0  0
  1  2  2  0  0  0  0
  2  3  1  0  0  0  0
  3  4  4  0  0  0  0
  4  5  4  0  0  0  0
  5  6  4  0  0  0  0
  6  7  4  0  0  0  0
  7  8  1  0  0  0  0
  8  9  2  0  0  0  0
  3 10  4  0  0  0  0
  7 10  4  0  0  0  0
 10 11  1  0  0  0  0
  1 12  1  0  0  0  0
  1 13  1  0  0  0  0
  2 14  1  0  0  0  0
  4 15  1  0  0  0  0
  5 16  1  0  0  0  0
  6 17  1  0  0  0  0
  8 18  1  0  0  0  0
  9 19  1  0  0  0  0
  9 20  1  0  0  0  0
 11 21  1  0  0  0  0
 11 22  1  0  0  0  0
M  END
