
 OpenBabel02032210433D

 22 23  0  0  0  0  0  0  0  0999 V2000
   -2.4644    1.5044   -0.1307 C   0  0  0  0  0  0  0  0  0  0  0  0
   -1.5466    0.3745   -0.0335 N   0  0  0  0  0  0  0  0  0  0  0  0
   -1.8718   -0.9362    0.0786 C   0  0  0  0  0  0  0  0  0  0  0  0
   -0.7776   -1.7364    0.1497 N   0  0  0  0  0  0  0  0  0  0  0  0
   -0.2043    0.4020   -0.0343 C   0  0  0  0  0  0  0  0  0  0  0  0
    0.2549   -0.8755    0.0776 C   0  0  0  0  0  0  0  0  0  0  0  0
    1.6117   -1.1665    0.1065 C   0  0  0  0  0  0  0  0  0  0  0  0
    2.5134   -0.0909    0.0157 C   0  0  0  0  0  0  0  0  0  0  0  0
    2.0549    1.2516   -0.1039 C   0  0  0  0  0  0  0  0  0  0  0  0
    3.0923    2.3227   -0.1964 C   0  0  0  0  0  0  0  0  0  0  0  0
    2.8878    3.6440   -0.3398 C   0  0  0  0  0  0  0  0  0  0  0  0
    1.6554    4.2019   -0.4258 F   0  0  0  0  0  0  0  0  0  0  0  0
    3.9646    4.4702   -0.4072 F   0  0  0  0  0  0  0  0  0  0  0  0
    0.6549    1.4972   -0.1281 C   0  0  0  0  0  0  0  0  0  0  0  0
   -3.5180    1.1535   -0.1021 H   0  0  0  0  0  0  0  0  0  0  0  0
   -2.2922    2.0448   -1.0851 H   0  0  0  0  0  0  0  0  0  0  0  0
   -2.2947    2.1976    0.7198 H   0  0  0  0  0  0  0  0  0  0  0  0
   -2.8876   -1.3086    0.1091 H   0  0  0  0  0  0  0  0  0  0  0  0
    1.9643   -2.1860    0.1962 H   0  0  0  0  0  0  0  0  0  0  0  0
    3.5749   -0.3058    0.0372 H   0  0  0  0  0  0  0  0  0  0  0  0
    4.1303    2.0040   -0.1455 H   0  0  0  0  0  0  0  0  0  0  0  0
    0.2269    2.4801   -0.2135 H   0  0  0  0  0  0  0  0  0  0  0  0
  1  2  1  0  0  0  0
  1 15  1  0  0  0  0
  1 16  1  0  0  0  0
  1 17  1  0  0  0  0
  2  3  1  0  0  0  0
  2  5  1  0  0  0  0
  3  4  2  0  0  0  0
  3 18  1  0  0  0  0
  4  6  1  0  0  0  0
  5  6  1  0  0  0  0
  5 14  2  0  0  0  0
  6  7  2  0  0  0  0
  7  8  1  0  0  0  0
  7 19  1  0  0  0  0
  8  9  2  0  0  0  0
  8 20  1  0  0  0  0
  9 10  1  0  0  0  0
  9 14  1  0  0  0  0
 10 11  2  0  0  0  0
 10 21  1  0  0  0  0
 11 12  1  0  0  0  0
 11 13  1  0  0  0  0
 14 22  1  0  0  0  0
M  END
