
  xtb     02032211363D
 xtb: 6.4.1 (23d549d)
 26 26  0     0  0            999 V2000
    3.8523    2.5130   -0.0181 C   0  0  0  0  0  0  0  0  0  0  0  0
    3.5280    1.2262    0.0650 C   0  0  0  0  0  0  0  0  0  0  0  0
    2.1839    0.7132    0.0037 C   0  0  0  0  0  0  0  0  0  0  0  0
    0.9628    1.3211   -0.1431 C   0  0  0  0  0  0  0  0  0  0  0  0
   -0.0070    0.2888   -0.1323 C   0  0  0  0  0  0  0  0  0  0  0  0
   -1.4444    0.5416   -0.2646 C   0  0  0  0  0  0  0  0  0  0  0  0
   -1.9194    1.6466   -0.3723 O   0  0  0  0  0  0  0  0  0  0  0  0
   -2.1790   -0.5840   -0.2659 O   0  0  0  0  0  0  0  0  0  0  0  0
   -3.5932   -0.4240   -0.3747 C   0  0  0  0  0  0  0  0  0  0  0  0
   -4.2261   -0.1202    0.9759 C   0  0  0  0  0  0  0  0  0  0  0  0
    0.6978   -0.9002    0.0240 C   0  0  0  0  0  0  0  0  0  0  0  0
    0.2481   -2.2639    0.1073 C   0  0  0  0  0  0  0  0  0  0  0  0
    1.0691   -3.3023    0.2538 C   0  0  0  0  0  0  0  0  0  0  0  0
    2.0120   -0.6285    0.1042 O   0  0  0  0  0  0  0  0  0  0  0  0
    4.8765    2.8365    0.0342 H   0  0  0  0  0  0  0  0  0  0  0  0
    3.1071    3.2791   -0.1405 H   0  0  0  0  0  0  0  0  0  0  0  0
    4.2903    0.4688    0.1880 H   0  0  0  0  0  0  0  0  0  0  0  0
    0.7550    2.3651   -0.2479 H   0  0  0  0  0  0  0  0  0  0  0  0
   -3.9551   -1.3732   -0.7760 H   0  0  0  0  0  0  0  0  0  0  0  0
   -3.8050    0.3854   -1.0811 H   0  0  0  0  0  0  0  0  0  0  0  0
   -3.9757   -0.8982    1.6934 H   0  0  0  0  0  0  0  0  0  0  0  0
   -5.3057   -0.0681    0.8687 H   0  0  0  0  0  0  0  0  0  0  0  0
   -3.8623    0.8344    1.3478 H   0  0  0  0  0  0  0  0  0  0  0  0
   -0.8207   -2.3928    0.0407 H   0  0  0  0  0  0  0  0  0  0  0  0
    2.1358   -3.1702    0.3182 H   0  0  0  0  0  0  0  0  0  0  0  0
    0.6968   -4.3096    0.3126 H   0  0  0  0  0  0  0  0  0  0  0  0
  1  2  2  0  0  0  0
  2  3  1  0  0  0  0
  3  4  2  0  0  0  0
  4  5  4  0  0  0  0
  5  6  1  0  0  0  0
  6  7  2  0  0  0  0
  6  8  1  0  0  0  0
  8  9  1  0  0  0  0
  9 10  1  0  0  0  0
  5 11  4  0  0  0  0
 11 12  1  0  0  0  0
 12 13  2  0  0  0  0
  3 14  1  0  0  0  0
 11 14  1  0  0  0  0
  1 15  1  0  0  0  0
  1 16  1  0  0  0  0
  2 17  1  0  0  0  0
  4 18  1  0  0  0  0
  9 19  1  0  0  0  0
  9 20  1  0  0  0  0
 10 21  1  0  0  0  0
 10 22  1  0  0  0  0
 10 23  1  0  0  0  0
 12 24  1  0  0  0  0
 13 25  1  0  0  0  0
 13 26  1  0  0  0  0
M  END
