24

C          2.04174        0.84949       -0.76430
C          2.25530       -0.25400       -0.03740
C          3.02380       -0.23930        1.21650
C          2.67440       -1.18270        2.19610
C          3.38530       -1.27120        3.39610
C          4.45270       -0.41180        3.63350
O          5.23560       -0.39200        4.75500
C          4.93006       -1.33728        5.77213
C          4.79040        0.54560        2.66970
C          4.09690        0.64700        1.44920
C          4.43930        1.70640        0.47880
C          4.25964        1.67477       -0.84535
F          3.69811        0.61353       -1.46135
F          4.65167        2.73512       -1.58395
H          1.45841        0.79819       -1.67663
H          2.44028        1.81514       -0.47583
H          1.84999       -1.21605       -0.33710
H          1.84280       -1.86370        2.02550
H          3.07810       -2.01980        4.11810
H          5.65375       -1.20231        6.58182
H          5.03066       -2.36343        5.40282
H          3.93152       -1.16113        6.18537
H          5.61220        1.22190        2.89720
H          4.88552        2.60547        0.89523
24

C          1.14692        0.47598       -0.21150
C          2.25530       -0.25400       -0.03740
C          3.02380       -0.23930        1.21650
C          2.67440       -1.18270        2.19610
C          3.38530       -1.27120        3.39610
C          4.45270       -0.41180        3.63350
O          5.23560       -0.39200        4.75500
C          4.62776       -0.80044        5.97368
C          4.79040        0.54560        2.66970
C          4.09690        0.64700        1.44920
C          4.43930        1.70640        0.47880
C          5.29327        1.61540       -0.54545
F          5.95438        0.47154       -0.82026
F          5.49782        2.69924       -1.32457
H          0.60185        0.42676       -1.14730
H          0.76366        1.13388        0.55974
H          2.62902       -0.91005       -0.81814
H          1.84280       -1.86370        2.02550
H          3.07810       -2.01980        4.11810
H          5.38658       -0.74534        6.76026
H          4.28219       -1.83810        5.91604
H          3.81118       -0.12581        6.25110
H          5.61220        1.22190        2.89720
H          3.93814        2.66012        0.62062
24

C          0.97647       -0.64529       -0.09389
C          2.25530       -0.25400       -0.03740
C          3.02380       -0.23930        1.21650
C          2.67440       -1.18270        2.19610
C          3.38530       -1.27120        3.39610
C          4.45270       -0.41180        3.63350
O          5.23560       -0.39200        4.75500
C          4.62776       -0.80044        5.97368
C          4.79040        0.54560        2.66970
C          4.09690        0.64700        1.44920
C          4.43930        1.70640        0.47880
C          3.60444        2.33851       -0.35191
F          2.28305        2.06579       -0.37520
F          4.09978        3.27498       -1.18932
H          0.44917       -0.65373       -1.04106
H          0.43028       -0.95744        0.78858
H          2.79188        0.05623       -0.92929
H          1.84280       -1.86370        2.02550
H          3.07810       -2.01980        4.11810
H          5.38658       -0.74534        6.76026
H          4.28219       -1.83810        5.91604
H          3.81118       -0.12581        6.25110
H          5.61220        1.22190        2.89720
H          5.48576        1.99705        0.44280
24

C          2.61857       -0.98781       -1.09630
C          2.25530       -0.25400       -0.03740
C          3.02380       -0.23930        1.21650
C          2.67440       -1.18270        2.19610
C          3.38530       -1.27120        3.39610
C          4.45270       -0.41180        3.63350
O          5.23560       -0.39200        4.75500
C          5.40907       -1.62419        5.44280
C          4.79040        0.54560        2.66970
C          4.09690        0.64700        1.44920
C          4.43930        1.70640        0.47880
C          4.25964        1.67477       -0.84535
F          3.69811        0.61353       -1.46135
F          4.65167        2.73512       -1.58395
H          2.03131       -0.96054       -2.00713
H          3.49334       -1.62739       -1.08088
H          1.37643        0.38351       -0.06561
H          1.84280       -1.86370        2.02550
H          3.07810       -2.01980        4.11810
H          6.06999       -1.44057        6.29545
H          5.89054       -2.37114        4.80269
H          4.45552       -1.99349        5.83427
H          5.61220        1.22190        2.89720
H          4.88552        2.60547        0.89523
24

C          2.61857       -0.98781       -1.09630
C          2.25530       -0.25400       -0.03740
C          3.02380       -0.23930        1.21650
C          2.67440       -1.18270        2.19610
C          3.38530       -1.27120        3.39610
C          4.45270       -0.41180        3.63350
O          5.23560       -0.39200        4.75500
C          4.62776       -0.80044        5.97368
C          4.79040        0.54560        2.66970
C          4.09690        0.64700        1.44920
C          4.43930        1.70640        0.47880
C          5.29327        1.61540       -0.54545
F          5.95438        0.47154       -0.82026
F          5.49782        2.69924       -1.32457
H          2.03131       -0.96054       -2.00713
H          3.49334       -1.62739       -1.08088
H          1.37643        0.38351       -0.06561
H          1.84280       -1.86370        2.02550
H          3.07810       -2.01980        4.11810
H          5.38658       -0.74534        6.76026
H          4.28219       -1.83810        5.91604
H          3.81118       -0.12581        6.25110
H          5.61220        1.22190        2.89720
H          3.93814        2.66012        0.62062
24

C          0.97647       -0.64529       -0.09389
C          2.25530       -0.25400       -0.03740
C          3.02380       -0.23930        1.21650
C          2.67440       -1.18270        2.19610
C          3.38530       -1.27120        3.39610
C          4.45270       -0.41180        3.63350
O          5.23560       -0.39200        4.75500
C          5.78830        0.86188        5.13418
C          4.79040        0.54560        2.66970
C          4.09690        0.64700        1.44920
C          4.43930        1.70640        0.47880
C          4.98055        2.89908        0.74562
F          5.30236        3.26838        2.00303
F          5.21042        3.75547       -0.27287
H          0.44917       -0.65373       -1.04106
H          0.43028       -0.95744        0.78858
H          2.79188        0.05623       -0.92929
H          1.84280       -1.86370        2.02550
H          3.07810       -2.01980        4.11810
H          6.36536        0.70888        6.05132
H          5.00175        1.59187        5.35317
H          6.47453        1.23688        4.36780
H          5.61220        1.22190        2.89720
H          4.22419        1.48366       -0.56281
24

C          2.50752        0.58824       -1.04671
C          2.25530       -0.25400       -0.03740
C          3.02380       -0.23930        1.21650
C          2.67440       -1.18270        2.19610
C          3.38530       -1.27120        3.39610
C          4.45270       -0.41180        3.63350
O          5.23560       -0.39200        4.75500
C          5.78830        0.86188        5.13418
C          4.79040        0.54560        2.66970
C          4.09690        0.64700        1.44920
C          4.43930        1.70640        0.47880
C          5.29327        1.61540       -0.54545
F          5.95438        0.47154       -0.82026
F          5.49782        2.69924       -1.32457
H          1.90882        0.55338       -1.94981
H          3.30693        1.31858       -1.00117
H          1.45076       -0.98133       -0.09516
H          1.84280       -1.86370        2.02550
H          3.07810       -2.01980        4.11810
H          6.36536        0.70888        6.05132
H          5.00175        1.59187        5.35317
H          6.47453        1.23688        4.36780
H          5.61220        1.22190        2.89720
H          3.93814        2.66012        0.62062
24

C          1.25935       -1.11972       -0.26170
C          2.25530       -0.25400       -0.03740
C          3.02380       -0.23930        1.21650
C          2.67440       -1.18270        2.19610
C          3.38530       -1.27120        3.39610
C          4.45270       -0.41180        3.63350
O          5.23560       -0.39200        4.75500
C          6.58646        0.02035        4.59185
C          4.79040        0.54560        2.66970
C          4.09690        0.64700        1.44920
C          4.43930        1.70640        0.47880
C          4.98055        2.89908        0.74562
F          5.30236        3.26838        2.00303
F          5.21042        3.75547       -0.27287
H          0.72586       -1.10604       -1.20534
H          0.95239       -1.84884        0.47903
H          2.55377        0.47182       -0.78822
H          1.84280       -1.86370        2.02550
H          3.07810       -2.01980        4.11810
H          7.06351       -0.00135        5.57648
H          6.64479        1.04733        4.21581
H          7.13277       -0.67108        3.94198
H          5.61220        1.22190        2.89720
H          4.22419        1.48366       -0.56281
24

C          2.61857       -0.98781       -1.09630
C          2.25530       -0.25400       -0.03740
C          3.02380       -0.23930        1.21650
C          2.67440       -1.18270        2.19610
C          3.38530       -1.27120        3.39610
C          4.45270       -0.41180        3.63350
O          5.23560       -0.39200        4.75500
C          4.93006       -1.33728        5.77213
C          4.79040        0.54560        2.66970
C          4.09690        0.64700        1.44920
C          4.43930        1.70640        0.47880
C          3.96874        2.95720        0.45206
F          3.09373        3.40738        1.37547
F          4.38214        3.79059       -0.52678
H          2.03131       -0.96054       -2.00713
H          3.49334       -1.62739       -1.08088
H          1.37643        0.38351       -0.06561
H          1.84280       -1.86370        2.02550
H          3.07810       -2.01980        4.11810
H          5.65375       -1.20231        6.58182
H          5.03066       -2.36343        5.40282
H          3.93152       -1.16113        6.18537
H          5.61220        1.22190        2.89720
H          5.15156        1.43016       -0.29400
24

C          2.78542        0.10979       -1.21142
C          2.25530       -0.25400       -0.03740
C          3.02380       -0.23930        1.21650
C          2.67440       -1.18270        2.19610
C          3.38530       -1.27120        3.39610
C          4.45270       -0.41180        3.63350
O          5.23560       -0.39200        4.75500
C          5.40907       -1.62419        5.44280
C          4.79040        0.54560        2.66970
C          4.09690        0.64700        1.44920
C          4.43930        1.70640        0.47880
C          3.96874        2.95720        0.45206
F          3.09373        3.40738        1.37547
F          4.38214        3.79059       -0.52678
H          2.18076        0.09714       -2.11113
H          3.81968        0.41978       -1.30489
H          1.21701       -0.56237        0.04319
H          1.84280       -1.86370        2.02550
H          3.07810       -2.01980        4.11810
H          6.06999       -1.44057        6.29545
H          5.89054       -2.37114        4.80269
H          4.45552       -1.99349        5.83427
H          5.61220        1.22190        2.89720
H          5.15156        1.43016       -0.29400
