  24

 C          2.1587400000        0.7840500000       -1.0235300000
 C          2.3552000000       -0.0964000000       -0.0362000000
 C          3.1302000000        0.2250000000        1.1698000000
 C          2.7675000000       -0.4260000000        2.3597000000
 C          3.4843000000       -0.2173000000        3.5410000000
 C          4.5708000000        0.6509000000        3.5474000000
 O          5.3628000000        0.9405000000        4.6241000000
 C          4.7571000000        0.8715000000        5.9085400000
 C          4.9207000000        1.3212000000        2.3695000000
 C          4.2229000000        1.1184000000        1.1651000000
 C          4.5794000000        1.8835000000       -0.0464000000
 C          5.1469200000        3.0944800000       -0.0932000000
 F          5.4865100000        3.7640300000        1.0272100000
 F          5.3925500000        3.6538300000       -1.2971400000
 H          1.5708800000        0.5116400000       -1.8948200000
 H          2.5758000000        1.7864400000       -0.9926300000
 H          1.9325900000       -1.0967000000       -0.0816800000
 H          1.9214000000       -1.1108000000        2.3708000000
 H          3.1666000000       -0.7476000000        4.4323000000
 H          5.5273100000        1.0934900000        6.6535100000
 H          4.3750100000       -0.1341500000        6.1144000000
 H          3.9678700000        1.6235400000        6.0108800000
 H          5.7569000000        2.0158000000        2.4135000000
 H          4.3537400000        1.4069800000       -0.9945300000
