 xtb: 6.5.0 (unknown)
          08122213083D

 24  0  0     0  0            999 V2000
   -4.0614   -2.0641   -0.0072 C   0  0  0  0  0  0  0  0  0  0  0  0
   -2.7355   -1.9951    0.0001 C   0  0  0  0  0  0  0  0  0  0  0  0
   -1.9238   -0.7849    0.0005 C   0  0  0  0  0  0  0  0  0  0  0  0
   -2.4645    0.4995    0.0051 C   0  0  0  0  0  0  0  0  0  0  0  0
   -1.6518    1.6163    0.0046 C   0  0  0  0  0  0  0  0  0  0  0  0
   -0.2680    1.4897   -0.0007 C   0  0  0  0  0  0  0  0  0  0  0  0
    0.5960    2.5410   -0.0020 O   0  0  0  0  0  0  0  0  0  0  0  0
    0.0770    3.8488    0.0049 C   0  0  0  0  0  0  0  0  0  0  0  0
    0.3063    0.1986   -0.0045 C   0  0  0  0  0  0  0  0  0  0  0  0
    1.7566    0.1018   -0.0099 C   0  0  0  0  0  0  0  0  0  0  0  0
    2.5129   -0.9847   -0.0006 C   0  0  0  0  0  0  0  0  0  0  0  0
    2.1294   -2.2584    0.0161 F   0  0  0  0  0  0  0  0  0  0  0  0
    3.8460   -0.9424   -0.0068 F   0  0  0  0  0  0  0  0  0  0  0  0
   -0.5351   -0.9066   -0.0038 C   0  0  0  0  0  0  0  0  0  0  0  0
   -4.5707   -3.0123   -0.0073 H   0  0  0  0  0  0  0  0  0  0  0  0
   -4.6932   -1.1925   -0.0137 H   0  0  0  0  0  0  0  0  0  0  0  0
   -2.1639   -2.9150    0.0057 H   0  0  0  0  0  0  0  0  0  0  0  0
   -3.5341    0.6376    0.0100 H   0  0  0  0  0  0  0  0  0  0  0  0
   -2.1110    2.5923    0.0085 H   0  0  0  0  0  0  0  0  0  0  0  0
    0.9445    4.5072    0.0027 H   0  0  0  0  0  0  0  0  0  0  0  0
   -0.5189    4.0406    0.9026 H   0  0  0  0  0  0  0  0  0  0  0  0
   -0.5281    4.0468   -0.8854 H   0  0  0  0  0  0  0  0  0  0  0  0
    2.2890    1.0406   -0.0217 H   0  0  0  0  0  0  0  0  0  0  0  0
   -0.1066   -1.8958   -0.0075 H   0  0  0  0  0  0  0  0  0  0  0  0
M  END
