
  xtb     02032211353D
 xtb: 6.4.1 (23d549d)
 49 51  0     0  0            999 V2000
   -5.9995   -0.6313    0.0487 C   0  0  0  0  0  0  0  0  0  0  0  0
   -4.8868   -1.2853    0.3630 C   0  0  0  0  0  0  0  0  0  0  0  0
   -3.5212   -0.8135    0.1937 C   0  0  0  0  0  0  0  0  0  0  0  0
   -3.1928    0.4098   -0.3899 C   0  0  0  0  0  0  0  0  0  0  0  0
   -1.8798    0.8104   -0.5238 C   0  0  0  0  0  0  0  0  0  0  0  0
   -0.8255    0.0203   -0.0618 C   0  0  0  0  0  0  0  0  0  0  0  0
   -1.1562   -1.2091    0.5147 C   0  0  0  0  0  0  0  0  0  0  0  0
   -2.4684   -1.6199    0.6293 C   0  0  0  0  0  0  0  0  0  0  0  0
    0.1182   -2.2544    1.1690 S   0  0  0  0  0  0  0  0  0  0  0  0
    1.4189   -1.8153    0.0459 C   0  0  0  0  0  0  0  0  0  0  0  0
    2.3767   -2.7635   -0.2468 C   0  0  0  0  0  0  0  0  0  0  0  0
    3.4562   -2.4621   -1.0783 C   0  0  0  0  0  0  0  0  0  0  0  0
    4.5055   -3.4177   -1.3971 C   0  0  0  0  0  0  0  0  0  0  0  0
    4.6145   -4.6611   -0.9427 C   0  0  0  0  0  0  0  0  0  0  0  0
    3.5066   -1.1795   -1.6239 C   0  0  0  0  0  0  0  0  0  0  0  0
    2.5364   -0.2374   -1.3485 C   0  0  0  0  0  0  0  0  0  0  0  0
    1.4763   -0.5233   -0.4872 C   0  0  0  0  0  0  0  0  0  0  0  0
    0.5019    0.4226   -0.1832 N   0  0  0  0  0  0  0  0  0  0  0  0
    0.8222    1.8348   -0.2085 C   0  0  0  0  0  0  0  0  0  0  0  0
    0.3197    2.5241    1.0641 C   0  0  0  0  0  0  0  0  0  0  0  0
    0.8502    3.9505    1.2074 C   0  0  0  0  0  0  0  0  0  0  0  0
    0.4080    4.9185    0.1070 C   0  0  0  0  0  0  0  0  0  0  0  0
   -1.1053    5.0937   -0.0304 C   0  0  0  0  0  0  0  0  0  0  0  0
   -1.7591    5.6696    1.2199 C   0  0  0  0  0  0  0  0  0  0  0  0
   -6.9693   -1.0687    0.2120 H   0  0  0  0  0  0  0  0  0  0  0  0
   -5.9954    0.3565   -0.3791 H   0  0  0  0  0  0  0  0  0  0  0  0
   -4.9665   -2.2755    0.7951 H   0  0  0  0  0  0  0  0  0  0  0  0
   -3.9720    1.0596   -0.7560 H   0  0  0  0  0  0  0  0  0  0  0  0
   -1.6700    1.7520   -1.0060 H   0  0  0  0  0  0  0  0  0  0  0  0
   -2.6722   -2.5756    1.0894 H   0  0  0  0  0  0  0  0  0  0  0  0
    2.2815   -3.7395    0.2012 H   0  0  0  0  0  0  0  0  0  0  0  0
    5.2603   -3.0408   -2.0772 H   0  0  0  0  0  0  0  0  0  0  0  0
    3.9037   -5.0981   -0.2630 H   0  0  0  0  0  0  0  0  0  0  0  0
    5.4332   -5.2941   -1.2389 H   0  0  0  0  0  0  0  0  0  0  0  0
    4.3186   -0.9160   -2.2865 H   0  0  0  0  0  0  0  0  0  0  0  0
    2.6004    0.7315   -1.8192 H   0  0  0  0  0  0  0  0  0  0  0  0
    0.4186    2.3224   -1.1036 H   0  0  0  0  0  0  0  0  0  0  0  0
    1.9092    1.9271   -0.2321 H   0  0  0  0  0  0  0  0  0  0  0  0
    0.6622    1.9376    1.9205 H   0  0  0  0  0  0  0  0  0  0  0  0
   -0.7697    2.5255    1.0892 H   0  0  0  0  0  0  0  0  0  0  0  0
    1.9431    3.9210    1.2154 H   0  0  0  0  0  0  0  0  0  0  0  0
    0.5311    4.3404    2.1751 H   0  0  0  0  0  0  0  0  0  0  0  0
    0.8122    4.5862   -0.8517 H   0  0  0  0  0  0  0  0  0  0  0  0
    0.8510    5.8946    0.3210 H   0  0  0  0  0  0  0  0  0  0  0  0
   -1.5728    4.1382   -0.2734 H   0  0  0  0  0  0  0  0  0  0  0  0
   -1.2923    5.7686   -0.8696 H   0  0  0  0  0  0  0  0  0  0  0  0
   -1.6933    4.9738    2.0522 H   0  0  0  0  0  0  0  0  0  0  0  0
   -2.8112    5.8742    1.0342 H   0  0  0  0  0  0  0  0  0  0  0  0
   -1.2751    6.6003    1.5080 H   0  0  0  0  0  0  0  0  0  0  0  0
  1  2  2  0  0  0  0
  2  3  1  0  0  0  0
  3  4  4  0  0  0  0
  4  5  4  0  0  0  0
  5  6  4  0  0  0  0
  6  7  4  0  0  0  0
  3  8  4  0  0  0  0
  7  8  4  0  0  0  0
  7  9  1  0  0  0  0
  9 10  1  0  0  0  0
 10 11  4  0  0  0  0
 11 12  4  0  0  0  0
 12 13  1  0  0  0  0
 13 14  2  0  0  0  0
 12 15  4  0  0  0  0
 15 16  4  0  0  0  0
 10 17  4  0  0  0  0
 16 17  4  0  0  0  0
  6 18  1  0  0  0  0
 17 18  1  0  0  0  0
 18 19  1  0  0  0  0
 19 20  1  0  0  0  0
 20 21  1  0  0  0  0
 21 22  1  0  0  0  0
 22 23  1  0  0  0  0
 23 24  1  0  0  0  0
  1 25  1  0  0  0  0
  1 26  1  0  0  0  0
  2 27  1  0  0  0  0
  4 28  1  0  0  0  0
  5 29  1  0  0  0  0
  8 30  1  0  0  0  0
 11 31  1  0  0  0  0
 13 32  1  0  0  0  0
 14 33  1  0  0  0  0
 14 34  1  0  0  0  0
 15 35  1  0  0  0  0
 16 36  1  0  0  0  0
 19 37  1  0  0  0  0
 19 38  1  0  0  0  0
 20 39  1  0  0  0  0
 20 40  1  0  0  0  0
 21 41  1  0  0  0  0
 21 42  1  0  0  0  0
 22 43  1  0  0  0  0
 22 44  1  0  0  0  0
 23 45  1  0  0  0  0
 23 46  1  0  0  0  0
 24 47  1  0  0  0  0
 24 48  1  0  0  0  0
 24 49  1  0  0  0  0
M  END
