
 OpenBabel02012214123D

 19 19  0  0  0  0  0  0  0  0999 V2000
    0.9387    0.0496   -0.0547 C   0  0  0  0  0  0  0  0  0  0  0  0
    2.4395    0.0621   -0.0540 C   0  0  0  0  0  0  0  0  0  0  0  0
    3.1386    1.2810   -0.0550 C   0  0  0  0  0  0  0  0  0  0  0  0
    4.5422    1.3120   -0.0544 C   0  0  0  0  0  0  0  0  0  0  0  0
    5.2841    2.6138   -0.0571 C   0  0  0  0  0  0  0  0  0  0  0  0
    5.2424    0.1025   -0.0519 C   0  0  0  0  0  0  0  0  0  0  0  0
    6.5840    0.1103   -0.0503 F   0  0  0  0  0  0  0  0  0  0  0  0
    4.5625   -1.1084   -0.0515 C   0  0  0  0  0  0  0  0  0  0  0  0
    5.2357   -2.2687   -0.0502 F   0  0  0  0  0  0  0  0  0  0  0  0
    3.1697   -1.1297   -0.0534 C   0  0  0  0  0  0  0  0  0  0  0  0
    2.5023   -2.3252   -0.0552 O   0  0  0  0  0  0  0  0  0  0  0  0
    0.5313    1.0661   -0.0532 H   0  0  0  0  0  0  0  0  0  0  0  0
    0.5632   -0.4598    0.8384 H   0  0  0  0  0  0  0  0  0  0  0  0
    0.5636   -0.4575   -0.9492 H   0  0  0  0  0  0  0  0  0  0  0  0
    2.5816    2.2173   -0.0564 H   0  0  0  0  0  0  0  0  0  0  0  0
    4.5954    3.4655   -0.0599 H   0  0  0  0  0  0  0  0  0  0  0  0
    5.9125    2.6898   -0.9500 H   0  0  0  0  0  0  0  0  0  0  0  0
    5.9114    2.6946    0.8362 H   0  0  0  0  0  0  0  0  0  0  0  0
    3.1758   -3.0318   -0.0583 H   0  0  0  0  0  0  0  0  0  0  0  0
  1  2  1  0  0  0  0
  1 12  1  0  0  0  0
  1 13  1  0  0  0  0
  1 14  1  0  0  0  0
  2  3  1  0  0  0  0
  2 10  2  0  0  0  0
  3  4  2  0  0  0  0
  3 15  1  0  0  0  0
  4  5  1  0  0  0  0
  4  6  1  0  0  0  0
  5 16  1  0  0  0  0
  5 17  1  0  0  0  0
  5 18  1  0  0  0  0
  6  7  1  0  0  0  0
  6  8  2  0  0  0  0
  8  9  1  0  0  0  0
  8 10  1  0  0  0  0
 10 11  1  0  0  0  0
 11 19  1  0  0  0  0
M  END
