
  xtb     02032211343D
 xtb: 6.4.1 (23d549d)
 30 31  0     0  0            999 V2000
    3.3410    2.5534    0.4970 C   0  0  0  0  0  0  0  0  0  0  0  0
    3.0039    1.2196    0.0602 N   0  0  0  0  0  0  0  0  0  0  0  0
    1.6612    0.8557    0.0260 C   0  0  0  0  0  0  0  0  0  0  0  0
    0.6385    1.7837    0.0171 C   0  0  0  0  0  0  0  0  0  0  0  0
   -0.6926    1.3893   -0.0843 C   0  0  0  0  0  0  0  0  0  0  0  0
   -1.0546    0.0619   -0.1820 C   0  0  0  0  0  0  0  0  0  0  0  0
   -2.4388   -0.3194   -0.4194 C   0  0  0  0  0  0  0  0  0  0  0  0
   -3.5199    0.3564   -0.0611 C   0  0  0  0  0  0  0  0  0  0  0  0
   -3.5815    1.4899    0.6336 F   0  0  0  0  0  0  0  0  0  0  0  0
   -4.7628   -0.0402   -0.3489 F   0  0  0  0  0  0  0  0  0  0  0  0
    1.3189   -0.5328    0.0703 C   0  0  0  0  0  0  0  0  0  0  0  0
   -0.0377   -0.9332   -0.0672 C   0  0  0  0  0  0  0  0  0  0  0  0
   -0.3332   -2.3118   -0.0187 C   0  0  0  0  0  0  0  0  0  0  0  0
    0.6448   -3.2475    0.1781 C   0  0  0  0  0  0  0  0  0  0  0  0
    1.9696   -2.8461    0.3784 C   0  0  0  0  0  0  0  0  0  0  0  0
    2.2939   -1.5184    0.3278 C   0  0  0  0  0  0  0  0  0  0  0  0
    3.8547    0.7678   -1.0229 C   0  0  0  0  0  0  0  0  0  0  0  0
    2.7661    2.8031    1.3864 H   0  0  0  0  0  0  0  0  0  0  0  0
    3.1683    3.3180   -0.2732 H   0  0  0  0  0  0  0  0  0  0  0  0
    4.4012    2.5667    0.7543 H   0  0  0  0  0  0  0  0  0  0  0  0
    0.8565    2.8395    0.0346 H   0  0  0  0  0  0  0  0  0  0  0  0
   -1.4469    2.1578   -0.1472 H   0  0  0  0  0  0  0  0  0  0  0  0
   -2.6307   -1.2353   -0.9573 H   0  0  0  0  0  0  0  0  0  0  0  0
   -1.3569   -2.6390   -0.1112 H   0  0  0  0  0  0  0  0  0  0  0  0
    0.3921   -4.2971    0.2126 H   0  0  0  0  0  0  0  0  0  0  0  0
    2.7284   -3.5851    0.5889 H   0  0  0  0  0  0  0  0  0  0  0  0
    3.3054   -1.2063    0.5330 H   0  0  0  0  0  0  0  0  0  0  0  0
    3.9302    1.5363   -1.8042 H   0  0  0  0  0  0  0  0  0  0  0  0
    3.4538   -0.1356   -1.4737 H   0  0  0  0  0  0  0  0  0  0  0  0
    4.8597    0.5660   -0.6453 H   0  0  0  0  0  0  0  0  0  0  0  0
  1  2  1  0  0  0  0
  2  3  1  0  0  0  0
  3  4  4  0  0  0  0
  4  5  4  0  0  0  0
  5  6  4  0  0  0  0
  6  7  1  0  0  0  0
  7  8  2  0  0  0  0
  8  9  1  0  0  0  0
  8 10  1  0  0  0  0
  3 11  4  0  0  0  0
  6 12  4  0  0  0  0
 11 12  4  0  0  0  0
 12 13  4  0  0  0  0
 13 14  2  0  0  0  0
 14 15  4  0  0  0  0
 11 16  4  0  0  0  0
 15 16  2  0  0  0  0
  2 17  1  0  0  0  0
  1 18  1  0  0  0  0
  1 19  1  0  0  0  0
  1 20  1  0  0  0  0
  4 21  1  0  0  0  0
  5 22  1  0  0  0  0
  7 23  1  0  0  0  0
 13 24  1  0  0  0  0
 14 25  1  0  0  0  0
 15 26  1  0  0  0  0
 16 27  1  0  0  0  0
 17 28  1  0  0  0  0
 17 29  1  0  0  0  0
 17 30  1  0  0  0  0
M  END
