
  xtb     02032211353D
 xtb: 6.4.1 (23d549d)
 20 20  0     0  0            999 V2000
   -3.6403    0.4885    0.0067 C   0  0  0  0  0  0  0  0  0  0  0  0
   -2.9225   -0.5770   -0.3254 C   0  0  0  0  0  0  0  0  0  0  0  0
   -1.4840   -0.7244   -0.1757 C   0  0  0  0  0  0  0  0  0  0  0  0
   -0.8967   -1.9547   -0.0236 C   0  0  0  0  0  0  0  0  0  0  0  0
    0.7941   -1.8882    0.1794 S   0  0  0  0  0  0  0  0  0  0  0  0
    0.7636   -0.1611    0.0368 C   0  0  0  0  0  0  0  0  0  0  0  0
    2.0993    0.4538    0.0302 C   0  0  0  0  0  0  0  0  0  0  0  0
    3.0818   -0.1941    0.2839 O   0  0  0  0  0  0  0  0  0  0  0  0
    2.1939    1.7501   -0.3039 O   0  0  0  0  0  0  0  0  0  0  0  0
   -0.5160    0.3268   -0.1412 C   0  0  0  0  0  0  0  0  0  0  0  0
   -0.8802    1.7317   -0.3207 C   0  0  0  0  0  0  0  0  0  0  0  0
   -0.5213    2.7219    0.4892 C   0  0  0  0  0  0  0  0  0  0  0  0
   -4.7078    0.5045   -0.1307 H   0  0  0  0  0  0  0  0  0  0  0  0
   -3.2013    1.3677    0.4454 H   0  0  0  0  0  0  0  0  0  0  0  0
   -3.4198   -1.4567   -0.7142 H   0  0  0  0  0  0  0  0  0  0  0  0
   -1.3991   -2.9023   -0.0046 H   0  0  0  0  0  0  0  0  0  0  0  0
    1.3261    2.1623   -0.4521 H   0  0  0  0  0  0  0  0  0  0  0  0
   -1.5211    1.9252   -1.1732 H   0  0  0  0  0  0  0  0  0  0  0  0
    0.0633    2.5501    1.3791 H   0  0  0  0  0  0  0  0  0  0  0  0
   -0.8342    3.7367    0.3115 H   0  0  0  0  0  0  0  0  0  0  0  0
  1  2  2  0  0  0  0
  2  3  1  0  0  0  0
  3  4  2  0  0  0  0
  4  5  1  0  0  0  0
  5  6  1  0  0  0  0
  6  7  1  0  0  0  0
  7  8  2  0  0  0  0
  7  9  1  0  0  0  0
  3 10  4  0  0  0  0
  6 10  4  0  0  0  0
 10 11  1  0  0  0  0
 11 12  2  0  0  0  0
  1 13  1  0  0  0  0
  1 14  1  0  0  0  0
  2 15  1  0  0  0  0
  4 16  1  0  0  0  0
  9 17  1  0  0  0  0
 11 18  1  0  0  0  0
 12 19  1  0  0  0  0
 12 20  1  0  0  0  0
M  END
