24

C          1.93905        0.85965       -1.38064
C          2.17580        0.37010       -0.15910
C          3.05480        1.03350        0.82570
C          2.95450        1.00180        2.21640
C          3.95770        1.73640        2.85990
C          4.84570        2.34520        1.97920
C          6.00420        3.17010        2.35620
C          7.18645        3.29348        1.63569
C          8.12184        4.14159        2.24216
C          7.67413        4.68845        3.44690
C          8.37735        5.61254        4.36626
C          9.29591        6.51969        4.00261
F          9.68370        6.68613        2.71287
F          9.86561        7.30374        4.95472
S          6.12000        4.11493        3.74294
S          4.38360        1.97370        0.40350
H          1.28059        0.32332       -2.05646
H          2.38508        1.78484       -1.72674
H          1.69625       -0.56133        0.12685
H          2.18860        0.46820        2.76180
H          4.02930        1.81490        3.93680
H          7.37516        2.78624        0.69866
H          9.08579        4.33009        1.79609
H          8.12689        5.54412        5.42096
24

C          1.08861        0.94770       -0.68088
C          2.17580        0.37010       -0.15910
C          3.05480        1.03350        0.82570
C          2.95450        1.00180        2.21640
C          3.95770        1.73640        2.85990
C          4.84570        2.34520        1.97920
C          6.00420        3.17010        2.35620
C          6.88429        3.79032        1.47709
C          7.90325        4.50404        2.12081
C          7.82557        4.44503        3.51415
C          8.71933        5.06121        4.52172
C          8.56077        6.28025        5.05813
F          7.53058        7.09606        4.71952
F          9.46149        6.72323        5.97371
S          6.48982        3.50991        3.93032
S          4.38360        1.97370        0.40350
H          0.48348        0.40416       -1.39944
H          0.78353        1.95174       -0.40968
H          2.42581       -0.63937       -0.47176
H          2.18860        0.46820        2.76180
H          4.02930        1.81490        3.93680
H          6.79953        3.73119        0.39994
H          8.65976        5.03447        1.56400
H          9.57335        4.47457        4.84774
24

C          1.08861        0.94770       -0.68088
C          2.17580        0.37010       -0.15910
C          3.05480        1.03350        0.82570
C          2.95450        1.00180        2.21640
C          3.95770        1.73640        2.85990
C          4.84570        2.34520        1.97920
C          6.00420        3.17010        2.35620
C          6.75343        3.04053        3.51978
C          7.79455        3.97246        3.61797
C          7.86516        4.84090        2.52631
C          8.81638        5.94924        2.28043
C          9.41059        6.68735        3.22965
F          9.19184        6.48372        4.55336
F         10.26299        7.67892        2.86086
S          6.63568        4.43863        1.44999
S          4.38360        1.97370        0.40350
H          0.48348        0.40416       -1.39944
H          0.78353        1.95174       -0.40968
H          2.42581       -0.63937       -0.47176
H          2.18860        0.46820        2.76180
H          4.02930        1.81490        3.93680
H          6.55752        2.29718        4.28134
H          8.45729        3.99121        4.46893
H          9.04627        6.18102        1.24447
24

C          1.08861        0.94770       -0.68088
C          2.17580        0.37010       -0.15910
C          3.05480        1.03350        0.82570
C          2.95450        1.00180        2.21640
C          3.95770        1.73640        2.85990
C          4.84570        2.34520        1.97920
C          6.00420        3.17010        2.35620
C          6.88429        3.79032        1.47709
C          7.90325        4.50404        2.12081
C          7.82557        4.44503        3.51415
C          8.71933        5.06121        4.52172
C          8.58558        4.94715        5.85138
F          7.58485        4.23107        6.42347
F          9.47965        5.57004        6.66283
S          6.48982        3.50991        3.93032
S          4.38360        1.97370        0.40350
H          0.48348        0.40416       -1.39944
H          0.78353        1.95174       -0.40968
H          2.42581       -0.63937       -0.47176
H          2.18860        0.46820        2.76180
H          4.02930        1.81490        3.93680
H          6.79953        3.73119        0.39994
H          8.65976        5.03447        1.56400
H          9.54815        5.65546        4.14792
24

C          2.39558       -0.86270       -0.62788
C          2.17580        0.37010       -0.15910
C          3.05480        1.03350        0.82570
C          2.95450        1.00180        2.21640
C          3.95770        1.73640        2.85990
C          4.84570        2.34520        1.97920
C          6.00420        3.17010        2.35620
C          6.53071        4.22294        1.61702
C          7.64529        4.82202        2.21773
C          7.99878        4.23748        3.43604
C          9.11163        4.58980        4.34770
C         10.00174        5.57197        4.14291
F          9.96851        6.36679        3.04351
F         10.97723        5.78449        5.06436
S          6.92036        2.98552        3.75467
S          4.38360        1.97370        0.40350
H          1.71136       -1.29219       -1.35268
H          3.24299       -1.45793       -0.30803
H          1.30886        0.91447       -0.52154
H          2.18860        0.46820        2.76180
H          4.02930        1.81490        3.93680
H          6.12707        4.55275        0.66875
H          8.15847        5.65085        1.75578
H          9.21236        3.99952        5.25391
24

C          1.08861        0.94770       -0.68088
C          2.17580        0.37010       -0.15910
C          3.05480        1.03350        0.82570
C          2.95450        1.00180        2.21640
C          3.95770        1.73640        2.85990
C          4.84570        2.34520        1.97920
C          6.00420        3.17010        2.35620
C          6.40028        3.47559        3.65307
C          7.53695        4.29217        3.71003
C          8.03823        4.63206        2.45142
C          9.20836        5.47493        2.11371
C          9.62163        5.76790        0.87182
F          8.98625        5.30587       -0.23468
F         10.71724        6.55411        0.70658
S          7.06575        3.91122        1.28242
S          4.38360        1.97370        0.40350
H          0.48348        0.40416       -1.39944
H          0.78353        1.95174       -0.40968
H          2.42581       -0.63937       -0.47176
H          2.18860        0.46820        2.76180
H          4.02930        1.81490        3.93680
H          5.88584        3.12341        4.53751
H          7.95665        4.61098        4.65126
H          9.77667        5.88491        2.94361
24

C          1.08861        0.94770       -0.68088
C          2.17580        0.37010       -0.15910
C          3.05480        1.03350        0.82570
C          2.95450        1.00180        2.21640
C          3.95770        1.73640        2.85990
C          4.84570        2.34520        1.97920
C          6.00420        3.17010        2.35620
C          6.11154        3.95036        3.50151
C          7.32806        4.63853        3.59407
C          8.18295        4.39945        2.51568
C          9.53515        4.94809        2.26226
C          9.97708        6.14536        2.67476
F          9.20276        7.00022        3.38971
F         11.24501        6.52497        2.36807
S          7.41914        3.33307        1.46148
S          4.38360        1.97370        0.40350
H          0.48348        0.40416       -1.39944
H          0.78353        1.95174       -0.40968
H          2.42581       -0.63937       -0.47176
H          2.18860        0.46820        2.76180
H          4.02930        1.81490        3.93680
H          5.33577        4.02639        4.25206
H          7.54954        5.28408        4.42948
H         10.22054        4.32693        1.69287
24

C          1.12299       -0.37994        0.18279
C          2.17580        0.37010       -0.15910
C          3.05480        1.03350        0.82570
C          2.95450        1.00180        2.21640
C          3.95770        1.73640        2.85990
C          4.84570        2.34520        1.97920
C          6.00420        3.17010        2.35620
C          6.88429        3.79032        1.47709
C          7.90325        4.50404        2.12081
C          7.82557        4.44503        3.51415
C          8.71933        5.06121        4.52172
C          9.40963        6.19900        4.35485
F          9.35445        6.92226        3.20795
F         10.19721        6.65018        5.36576
S          6.48982        3.50991        3.93032
S          4.38360        1.97370        0.40350
H          0.51797       -0.84180       -0.59090
H          0.84683       -0.54747        1.21738
H          2.39967        0.49723       -1.21409
H          2.18860        0.46820        2.76180
H          4.02930        1.81490        3.93680
H          6.79953        3.73119        0.39994
H          8.65976        5.03447        1.56400
H          8.82281        4.54383        5.47114
24

C          2.59951       -0.05521       -1.35386
C          2.17580        0.37010       -0.15910
C          3.05480        1.03350        0.82570
C          2.95450        1.00180        2.21640
C          3.95770        1.73640        2.85990
C          4.84570        2.34520        1.97920
C          6.00420        3.17010        2.35620
C          6.53071        4.22294        1.61702
C          7.64529        4.82202        2.21773
C          7.99878        4.23748        3.43604
C          9.11163        4.58980        4.34770
C         10.28472        5.12045        3.97197
F         10.57678        5.39676        2.67587
F         11.22164        5.39267        4.91742
S          6.92036        2.98552        3.75467
S          4.38360        1.97370        0.40350
H          1.90108       -0.53391       -2.03283
H          3.62793        0.06182       -1.67537
H          1.13182        0.22388        0.10169
H          2.18860        0.46820        2.76180
H          4.02930        1.81490        3.93680
H          6.12707        4.55275        0.66875
H          8.15847        5.65085        1.75578
H          8.96132        4.39829        5.40625
24

C          1.93905        0.85965       -1.38064
C          2.17580        0.37010       -0.15910
C          3.05480        1.03350        0.82570
C          2.95450        1.00180        2.21640
C          3.95770        1.73640        2.85990
C          4.84570        2.34520        1.97920
C          6.00420        3.17010        2.35620
C          6.11154        3.95036        3.50151
C          7.32806        4.63853        3.59407
C          8.18295        4.39945        2.51568
C          9.53515        4.94809        2.26226
C         10.41520        5.31138        3.20696
F         10.14424        5.20767        4.53260
F         11.62426        5.80427        2.83142
S          7.41914        3.33307        1.46148
S          4.38360        1.97370        0.40350
H          1.28059        0.32332       -2.05646
H          2.38508        1.78484       -1.72674
H          1.69625       -0.56133        0.12685
H          2.18860        0.46820        2.76180
H          4.02930        1.81490        3.93680
H          5.33577        4.02639        4.25206
H          7.54954        5.28408        4.42948
H          9.83270        5.06641        1.22435
