 xtb: 6.5.0 (unknown)
          08112218563D

 27  0  0     0  0            999 V2000
   -3.7543   -1.1826    0.9883 C   0  0  0  0  0  0  0  0  0  0  0  0
   -2.4293   -1.1974    1.0521 C   0  0  0  0  0  0  0  0  0  0  0  0
   -1.5354   -0.2083    0.4571 C   0  0  0  0  0  0  0  0  0  0  0  0
   -1.9707    1.0720    0.1259 C   0  0  0  0  0  0  0  0  0  0  0  0
   -1.0974    1.9784   -0.4452 C   0  0  0  0  0  0  0  0  0  0  0  0
   -1.6636    3.5523   -0.8834 Cl  0  0  0  0  0  0  0  0  0  0  0  0
    0.2286    1.6506   -0.6581 C   0  0  0  0  0  0  0  0  0  0  0  0
    0.6987    0.3909   -0.2953 C   0  0  0  0  0  0  0  0  0  0  0  0
    2.1273    0.1167   -0.4711 C   0  0  0  0  0  0  0  0  0  0  0  0
    2.9044   -0.4932    0.4090 C   0  0  0  0  0  0  0  0  0  0  0  0
    2.5653   -0.9657    1.5944 F   0  0  0  0  0  0  0  0  0  0  0  0
    4.2064   -0.6958    0.2116 F   0  0  0  0  0  0  0  0  0  0  0  0
   -0.1918   -0.5562    0.2274 C   0  0  0  0  0  0  0  0  0  0  0  0
    0.2226   -1.8287    0.5331 O   0  0  0  0  0  0  0  0  0  0  0  0
    0.5329   -2.6647   -0.5718 C   0  0  0  0  0  0  0  0  0  0  0  0
   -0.7030   -3.0445   -1.3803 C   0  0  0  0  0  0  0  0  0  0  0  0
   -4.3440   -1.9524    1.4552 H   0  0  0  0  0  0  0  0  0  0  0  0
   -4.3040   -0.4185    0.4650 H   0  0  0  0  0  0  0  0  0  0  0  0
   -1.9205   -2.0041    1.5612 H   0  0  0  0  0  0  0  0  0  0  0  0
   -2.9918    1.3593    0.3159 H   0  0  0  0  0  0  0  0  0  0  0  0
    0.9077    2.3764   -1.0769 H   0  0  0  0  0  0  0  0  0  0  0  0
    2.6056    0.4956   -1.3621 H   0  0  0  0  0  0  0  0  0  0  0  0
    0.9855   -3.5516   -0.1225 H   0  0  0  0  0  0  0  0  0  0  0  0
    1.2699   -2.1829   -1.2282 H   0  0  0  0  0  0  0  0  0  0  0  0
   -1.4405   -3.5230   -0.7413 H   0  0  0  0  0  0  0  0  0  0  0  0
   -0.4219   -3.7315   -2.1736 H   0  0  0  0  0  0  0  0  0  0  0  0
   -1.1527   -2.1583   -1.8243 H   0  0  0  0  0  0  0  0  0  0  0  0
M  END
