
 OpenBabel02012213363D

 45 47  0  0  0  0  0  0  0  0999 V2000
    1.2331   -0.3739    0.3111 C   0  0  0  0  0  0  0  0  0  0  0  0
    2.5608   -0.0781    0.0823 O   0  0  0  0  0  0  0  0  0  0  0  0
    3.1939    1.0656    0.4523 C   0  0  0  0  0  0  0  0  0  0  0  0
    4.5565    1.1888    0.1719 C   0  0  0  0  0  0  0  0  0  0  0  0
    5.2597    2.3389    0.5377 C   0  0  0  0  0  0  0  0  0  0  0  0
    4.6155    3.4072    1.2002 C   0  0  0  0  0  0  0  0  0  0  0  0
    5.3480    4.5943    1.5912 N   0  0  0  0  0  0  0  0  0  0  0  0
    6.4917    5.0278    0.8170 C   0  0  0  0  0  0  0  0  0  0  0  0
    6.5413    4.8384   -0.5821 C   0  0  0  0  0  0  0  0  0  0  0  0
    7.6478    5.2584   -1.3259 C   0  0  0  0  0  0  0  0  0  0  0  0
    8.7347    5.8753   -0.6922 C   0  0  0  0  0  0  0  0  0  0  0  0
    9.9299    6.3290   -1.4771 C   0  0  0  0  0  0  0  0  0  0  0  0
    8.7009    6.0687    0.6929 C   0  0  0  0  0  0  0  0  0  0  0  0
    7.5959    5.6528    1.4380 C   0  0  0  0  0  0  0  0  0  0  0  0
    4.9608    5.3349    2.7745 C   0  0  0  0  0  0  0  0  0  0  0  0
    4.3741    4.6887    3.8845 C   0  0  0  0  0  0  0  0  0  0  0  0
    4.0142    5.4068    5.0278 C   0  0  0  0  0  0  0  0  0  0  0  0
    4.2269    6.7858    5.1017 C   0  0  0  0  0  0  0  0  0  0  0  0
    3.8659    7.4345    6.2393 O   0  0  0  0  0  0  0  0  0  0  0  0
    4.0343    8.7816    6.4850 C   0  0  0  0  0  0  0  0  0  0  0  0
    4.8066    7.4453    4.0030 C   0  0  0  0  0  0  0  0  0  0  0  0
    5.1672    6.7297    2.8587 C   0  0  0  0  0  0  0  0  0  0  0  0
    3.2360    3.2746    1.4734 C   0  0  0  0  0  0  0  0  0  0  0  0
    2.5346    2.1225    1.1062 C   0  0  0  0  0  0  0  0  0  0  0  0
    1.0099   -1.3793   -0.1015 H   0  0  0  0  0  0  0  0  0  0  0  0
    0.5802    0.3695   -0.1931 H   0  0  0  0  0  0  0  0  0  0  0  0
    1.0266   -0.3862    1.4029 H   0  0  0  0  0  0  0  0  0  0  0  0
    5.0789    0.3829   -0.3285 H   0  0  0  0  0  0  0  0  0  0  0  0
    6.3175    2.3777    0.3160 H   0  0  0  0  0  0  0  0  0  0  0  0
    5.7158    4.3780   -1.1085 H   0  0  0  0  0  0  0  0  0  0  0  0
    7.6533    5.1026   -2.3976 H   0  0  0  0  0  0  0  0  0  0  0  0
    9.8141    6.1101   -2.5599 H   0  0  0  0  0  0  0  0  0  0  0  0
   10.8379    5.8069   -1.1080 H   0  0  0  0  0  0  0  0  0  0  0  0
   10.0647    7.4240   -1.3518 H   0  0  0  0  0  0  0  0  0  0  0  0
    9.5349    6.5407    1.1982 H   0  0  0  0  0  0  0  0  0  0  0  0
    7.6167    5.8075    2.5087 H   0  0  0  0  0  0  0  0  0  0  0  0
    4.2081    3.6201    3.8834 H   0  0  0  0  0  0  0  0  0  0  0  0
    3.5720    4.8841    5.8667 H   0  0  0  0  0  0  0  0  0  0  0  0
    3.6474    9.0166    7.4977 H   0  0  0  0  0  0  0  0  0  0  0  0
    3.4690    9.3824    5.7411 H   0  0  0  0  0  0  0  0  0  0  0  0
    5.1130    9.0454    6.4484 H   0  0  0  0  0  0  0  0  0  0  0  0
    4.9836    8.5123    4.0212 H   0  0  0  0  0  0  0  0  0  0  0  0
    5.5993    7.2777    2.0320 H   0  0  0  0  0  0  0  0  0  0  0  0
    2.6880    4.0683    1.9630 H   0  0  0  0  0  0  0  0  0  0  0  0
    1.4792    2.0652    1.3361 H   0  0  0  0  0  0  0  0  0  0  0  0
  1  2  1  0  0  0  0
  1 25  1  0  0  0  0
  1 26  1  0  0  0  0
  1 27  1  0  0  0  0
  2  3  1  0  0  0  0
  3  4  1  0  0  0  0
  3 24  2  0  0  0  0
  4  5  2  0  0  0  0
  4 28  1  0  0  0  0
  5  6  1  0  0  0  0
  5 29  1  0  0  0  0
  6  7  1  0  0  0  0
  6 23  2  0  0  0  0
  7  8  1  0  0  0  0
  7 15  1  0  0  0  0
  8  9  1  0  0  0  0
  8 14  2  0  0  0  0
  9 10  2  0  0  0  0
  9 30  1  0  0  0  0
 10 11  1  0  0  0  0
 10 31  1  0  0  0  0
 11 12  1  0  0  0  0
 11 13  2  0  0  0  0
 12 32  1  0  0  0  0
 12 33  1  0  0  0  0
 12 34  1  0  0  0  0
 13 14  1  0  0  0  0
 13 35  1  0  0  0  0
 14 36  1  0  0  0  0
 15 16  1  0  0  0  0
 15 22  2  0  0  0  0
 16 17  2  0  0  0  0
 16 37  1  0  0  0  0
 17 18  1  0  0  0  0
 17 38  1  0  0  0  0
 18 19  1  0  0  0  0
 18 21  2  0  0  0  0
 19 20  1  0  0  0  0
 20 39  1  0  0  0  0
 20 40  1  0  0  0  0
 20 41  1  0  0  0  0
 21 22  1  0  0  0  0
 21 42  1  0  0  0  0
 22 43  1  0  0  0  0
 23 24  1  0  0  0  0
 23 44  1  0  0  0  0
 24 45  1  0  0  0  0
M  END
