
 OpenBabel02012213403D

 21 22  0  0  0  0  0  0  0  0999 V2000
    1.0051   -0.0647   -0.0320 C   0  0  0  0  0  0  0  0  0  0  0  0
    2.4639   -0.0737   -0.0324 N   0  0  0  0  0  0  0  0  0  0  0  0
    3.2747   -1.1596   -0.0344 C   0  0  0  0  0  0  0  0  0  0  0  0
    4.5902   -0.8246   -0.0346 N   0  0  0  0  0  0  0  0  0  0  0  0
    3.2947    0.9808   -0.0313 C   0  0  0  0  0  0  0  0  0  0  0  0
    4.5792    0.5215   -0.0327 C   0  0  0  0  0  0  0  0  0  0  0  0
    5.6699    1.3849   -0.0320 C   0  0  0  0  0  0  0  0  0  0  0  0
    5.4098    2.7682   -0.0299 C   0  0  0  0  0  0  0  0  0  0  0  0
    4.0750    3.2540   -0.0284 C   0  0  0  0  0  0  0  0  0  0  0  0
    3.8004    4.7283   -0.0260 C   0  0  0  0  0  0  0  0  0  0  0  0
    2.9947    2.3434   -0.0291 C   0  0  0  0  0  0  0  0  0  0  0  0
    0.6101   -1.1030   -0.0331 H   0  0  0  0  0  0  0  0  0  0  0  0
    0.6341    0.4604   -0.9370 H   0  0  0  0  0  0  0  0  0  0  0  0
    0.6346    0.4583    0.8747 H   0  0  0  0  0  0  0  0  0  0  0  0
    2.9186   -2.1819   -0.0357 H   0  0  0  0  0  0  0  0  0  0  0  0
    6.6839    1.0067   -0.0333 H   0  0  0  0  0  0  0  0  0  0  0  0
    6.2438    3.4587   -0.0295 H   0  0  0  0  0  0  0  0  0  0  0  0
    4.7422    5.3174   -0.0257 H   0  0  0  0  0  0  0  0  0  0  0  0
    3.2173    4.9980    0.8796 H   0  0  0  0  0  0  0  0  0  0  0  0
    3.2161    5.0008   -0.9298 H   0  0  0  0  0  0  0  0  0  0  0  0
    1.9682    2.6888   -0.0280 H   0  0  0  0  0  0  0  0  0  0  0  0
  1  2  1  0  0  0  0
  1 12  1  0  0  0  0
  1 13  1  0  0  0  0
  1 14  1  0  0  0  0
  2  3  1  0  0  0  0
  2  5  1  0  0  0  0
  3  4  2  0  0  0  0
  3 15  1  0  0  0  0
  4  6  1  0  0  0  0
  5  6  1  0  0  0  0
  5 11  2  0  0  0  0
  6  7  2  0  0  0  0
  7  8  1  0  0  0  0
  7 16  1  0  0  0  0
  8  9  2  0  0  0  0
  8 17  1  0  0  0  0
  9 10  1  0  0  0  0
  9 11  1  0  0  0  0
 10 18  1  0  0  0  0
 10 19  1  0  0  0  0
 10 20  1  0  0  0  0
 11 21  1  0  0  0  0
M  END
