25

C          1.43276        0.76455       -0.84251
C          2.40730        0.25240       -0.07780
C          3.19210        1.00680        0.94510
C          2.81120        1.10450        2.28600
C          3.57110        1.83110        3.22900
C          3.09360        1.89670        4.66180
C          2.27914        2.83256        5.17744
C          4.77210        2.49280        2.79380
N          5.55920        3.23350        3.73380
C          5.16310        2.38550        1.41250
C          6.39560        2.99380        0.73800
F          7.23271        3.73017        1.54037
F          7.15236        1.97215        0.19061
F          5.97784        3.82493       -0.28702
C          4.35750        1.64360        0.53290
H          0.92745        0.12429       -1.55871
H          1.11468        1.79663       -0.79125
H          2.64069       -0.79908       -0.22439
H          1.91040        0.61290        2.58850
H          3.39386        1.15541        5.38281
H          1.85929        3.65425        4.61639
H          2.00171        2.77486        6.22564
H          5.32900        3.30760        4.72720
H          6.41080        3.73970        3.49910
H          4.64880        1.56190       -0.50950
25

C          2.57442       -1.04124       -0.38664
C          2.40730        0.25240       -0.07780
C          3.19210        1.00680        0.94510
C          2.81120        1.10450        2.28600
C          3.57110        1.83110        3.22900
C          3.09360        1.89670        4.66180
C          3.42174        1.03668        5.64045
C          4.77210        2.49280        2.79380
N          5.55920        3.23350        3.73380
C          5.16310        2.38550        1.41250
C          6.39560        2.99380        0.73800
F          7.23271        3.73017        1.54037
F          7.15236        1.97215        0.19061
F          5.97784        3.82493       -0.28702
C          4.35750        1.64360        0.53290
H          1.94474       -1.49148       -1.14756
H          3.30983       -1.67711        0.08648
H          1.63137        0.78699       -0.61975
H          1.91040        0.61290        2.58850
H          2.43286        2.67991        4.99274
H          4.08107        0.19059        5.51541
H          3.01653        1.18714        6.63653
H          5.32900        3.30760        4.72720
H          6.41080        3.73970        3.49910
H          4.64880        1.56190       -0.50950
25

C          2.57442       -1.04124       -0.38664
C          2.40730        0.25240       -0.07780
C          3.19210        1.00680        0.94510
C          2.81120        1.10450        2.28600
C          3.57110        1.83110        3.22900
C          3.09360        1.89670        4.66180
C          2.27914        2.83256        5.17744
C          4.77210        2.49280        2.79380
N          5.55920        3.23350        3.73380
C          5.16310        2.38550        1.41250
C          6.39560        2.99380        0.73800
F          7.23271        3.73017        1.54037
F          7.15236        1.97215        0.19061
F          5.97784        3.82493       -0.28702
C          4.35750        1.64360        0.53290
H          1.94474       -1.49148       -1.14756
H          3.30983       -1.67711        0.08648
H          1.63137        0.78699       -0.61975
H          1.91040        0.61290        2.58850
H          3.39386        1.15541        5.38281
H          1.85929        3.65425        4.61639
H          2.00171        2.77486        6.22564
H          5.32900        3.30760        4.72720
H          6.41080        3.73970        3.49910
H          4.64880        1.56190       -0.50950
25

C          1.43276        0.76455       -0.84251
C          2.40730        0.25240       -0.07780
C          3.19210        1.00680        0.94510
C          2.81120        1.10450        2.28600
C          3.57110        1.83110        3.22900
C          3.09360        1.89670        4.66180
C          3.42174        1.03668        5.64045
C          4.77210        2.49280        2.79380
N          5.55920        3.23350        3.73380
C          5.16310        2.38550        1.41250
C          6.39560        2.99380        0.73800
F          7.23271        3.73017        1.54037
F          7.15236        1.97215        0.19061
F          5.97784        3.82493       -0.28702
C          4.35750        1.64360        0.53290
H          0.92745        0.12429       -1.55871
H          1.11468        1.79663       -0.79125
H          2.64069       -0.79908       -0.22439
H          1.91040        0.61290        2.58850
H          2.43286        2.67991        4.99274
H          4.08107        0.19059        5.51541
H          3.01653        1.18714        6.63653
H          5.32900        3.30760        4.72720
H          6.41080        3.73970        3.49910
H          4.64880        1.56190       -0.50950
25

C          1.64404       -0.82229        0.16570
C          2.40730        0.25240       -0.07780
C          3.19210        1.00680        0.94510
C          2.81120        1.10450        2.28600
C          3.57110        1.83110        3.22900
C          3.09360        1.89670        4.66180
C          3.42174        1.03668        5.64045
C          4.77210        2.49280        2.79380
N          5.55920        3.23350        3.73380
C          5.16310        2.38550        1.41250
C          6.39560        2.99380        0.73800
F          7.23271        3.73017        1.54037
F          7.15236        1.97215        0.19061
F          5.97784        3.82493       -0.28702
C          4.35750        1.64360        0.53290
H          1.11262       -1.29355       -0.65510
H          1.52018       -1.25544        1.14857
H          2.44909        0.59782       -1.10761
H          1.91040        0.61290        2.58850
H          2.43286        2.67991        4.99274
H          4.08107        0.19059        5.51541
H          3.01653        1.18714        6.63653
H          5.32900        3.30760        4.72720
H          6.41080        3.73970        3.49910
H          4.64880        1.56190       -0.50950
25

C          1.07931        0.07097       -0.05981
C          2.40730        0.25240       -0.07780
C          3.19210        1.00680        0.94510
C          2.81120        1.10450        2.28600
C          3.57110        1.83110        3.22900
C          3.09360        1.89670        4.66180
C          3.42174        1.03668        5.64045
C          4.77210        2.49280        2.79380
N          5.55920        3.23350        3.73380
C          5.16310        2.38550        1.41250
C          6.39560        2.99380        0.73800
F          7.23271        3.73017        1.54037
F          7.15236        1.97215        0.19061
F          5.97784        3.82493       -0.28702
C          4.35750        1.64360        0.53290
H          0.60940       -0.49429       -0.85848
H          0.43431        0.46290        0.71438
H          2.94836       -0.18676       -0.91204
H          1.91040        0.61290        2.58850
H          2.43286        2.67991        4.99274
H          4.08107        0.19059        5.51541
H          3.01653        1.18714        6.63653
H          5.32900        3.30760        4.72720
H          6.41080        3.73970        3.49910
H          4.64880        1.56190       -0.50950
25

C          2.57442       -1.04124       -0.38664
C          2.40730        0.25240       -0.07780
C          3.19210        1.00680        0.94510
C          2.81120        1.10450        2.28600
C          3.57110        1.83110        3.22900
C          3.09360        1.89670        4.66180
C          3.87693        2.00745        5.74770
C          4.77210        2.49280        2.79380
N          5.55920        3.23350        3.73380
C          5.16310        2.38550        1.41250
C          6.39560        2.99380        0.73800
F          7.23271        3.73017        1.54037
F          7.15236        1.97215        0.19061
F          5.97784        3.82493       -0.28702
C          4.35750        1.64360        0.53290
H          1.94474       -1.49148       -1.14756
H          3.30983       -1.67711        0.08648
H          1.63137        0.78699       -0.61975
H          1.91040        0.61290        2.58850
H          2.04429        1.85987        4.90079
H          4.95463        2.07104        5.72044
H          3.41784        2.04749        6.73088
H          5.32900        3.30760        4.72720
H          6.41080        3.73970        3.49910
H          4.64880        1.56190       -0.50950
25

C          2.34349        0.55022       -1.38319
C          2.40730        0.25240       -0.07780
C          3.19210        1.00680        0.94510
C          2.81120        1.10450        2.28600
C          3.57110        1.83110        3.22900
C          3.09360        1.89670        4.66180
C          2.27914        2.83256        5.17744
C          4.77210        2.49280        2.79380
N          5.55920        3.23350        3.73380
C          5.16310        2.38550        1.41250
C          6.39560        2.99380        0.73800
F          7.23271        3.73017        1.54037
F          7.15236        1.97215        0.19061
F          5.97784        3.82493       -0.28702
C          4.35750        1.64360        0.53290
H          1.74200       -0.06946       -2.04077
H          2.86654        1.38387       -1.83092
H          1.84024       -0.61390        0.25317
H          1.91040        0.61290        2.58850
H          3.39386        1.15541        5.38281
H          1.85929        3.65425        4.61639
H          2.00171        2.77486        6.22564
H          5.32900        3.30760        4.72720
H          6.41080        3.73970        3.49910
H          4.64880        1.56190       -0.50950
25

C          1.43276        0.76455       -0.84251
C          2.40730        0.25240       -0.07780
C          3.19210        1.00680        0.94510
C          2.81120        1.10450        2.28600
C          3.57110        1.83110        3.22900
C          3.09360        1.89670        4.66180
C          3.87693        2.00745        5.74770
C          4.77210        2.49280        2.79380
N          5.55920        3.23350        3.73380
C          5.16310        2.38550        1.41250
C          6.39560        2.99380        0.73800
F          7.23271        3.73017        1.54037
F          7.15236        1.97215        0.19061
F          5.97784        3.82493       -0.28702
C          4.35750        1.64360        0.53290
H          0.92745        0.12429       -1.55871
H          1.11468        1.79663       -0.79125
H          2.64069       -0.79908       -0.22439
H          1.91040        0.61290        2.58850
H          2.04429        1.85987        4.90079
H          4.95463        2.07104        5.72044
H          3.41784        2.04749        6.73088
H          5.32900        3.30760        4.72720
H          6.41080        3.73970        3.49910
H          4.64880        1.56190       -0.50950
25

C          2.34349        0.55022       -1.38319
C          2.40730        0.25240       -0.07780
C          3.19210        1.00680        0.94510
C          2.81120        1.10450        2.28600
C          3.57110        1.83110        3.22900
C          3.09360        1.89670        4.66180
C          3.87693        2.00745        5.74770
C          4.77210        2.49280        2.79380
N          5.55920        3.23350        3.73380
C          5.16310        2.38550        1.41250
C          6.39560        2.99380        0.73800
F          7.23271        3.73017        1.54037
F          7.15236        1.97215        0.19061
F          5.97784        3.82493       -0.28702
C          4.35750        1.64360        0.53290
H          1.74200       -0.06946       -2.04077
H          2.86654        1.38387       -1.83092
H          1.84024       -0.61390        0.25317
H          1.91040        0.61290        2.58850
H          2.04429        1.85987        4.90079
H          4.95463        2.07104        5.72044
H          3.41784        2.04749        6.73088
H          5.32900        3.30760        4.72720
H          6.41080        3.73970        3.49910
H          4.64880        1.56190       -0.50950
