
 OpenBabel02012214123D

 22 23  0  0  0  0  0  0  0  0999 V2000
    0.9428   -0.1187   -0.0542 C   0  0  0  0  0  0  0  0  0  0  0  0
    2.4429   -0.0500   -0.0578 C   0  0  0  0  0  0  0  0  0  0  0  0
    3.2259   -1.2309   -0.0631 C   0  0  0  0  0  0  0  0  0  0  0  0
    4.6352   -1.1936   -0.0691 C   0  0  0  0  0  0  0  0  0  0  0  0
    5.4302   -2.4629   -0.0772 C   0  0  0  0  0  0  0  0  0  0  0  0
    5.2245    0.0597   -0.0699 C   0  0  0  0  0  0  0  0  0  0  0  0
    4.4470    1.2185   -0.0644 C   0  0  0  0  0  0  0  0  0  0  0  0
    3.0681    1.2011   -0.0584 C   0  0  0  0  0  0  0  0  0  0  0  0
    5.3589    2.3619   -0.0687 C   0  0  0  0  0  0  0  0  0  0  0  0
    5.0632    3.5332   -0.0679 O   0  0  0  0  0  0  0  0  0  0  0  0
    6.7806    1.7419   -0.0762 C   0  0  0  0  0  0  0  0  0  0  0  0
    7.8286    2.3500   -0.0806 O   0  0  0  0  0  0  0  0  0  0  0  0
    6.5840    0.3740   -0.0767 N   0  0  0  0  0  0  0  0  0  0  0  0
    0.5854   -1.1531   -0.0509 H   0  0  0  0  0  0  0  0  0  0  0  0
    0.5440    0.3740   -0.9470 H   0  0  0  0  0  0  0  0  0  0  0  0
    0.5476    0.3784    0.8376 H   0  0  0  0  0  0  0  0  0  0  0  0
    2.7198   -2.1966   -0.0626 H   0  0  0  0  0  0  0  0  0  0  0  0
    4.7767   -3.3426   -0.0726 H   0  0  0  0  0  0  0  0  0  0  0  0
    6.0675   -2.5214    0.8107 H   0  0  0  0  0  0  0  0  0  0  0  0
    6.0523   -2.5192   -0.9759 H   0  0  0  0  0  0  0  0  0  0  0  0
    2.5022    2.1277   -0.0546 H   0  0  0  0  0  0  0  0  0  0  0  0
    7.3483   -0.2843   -0.0814 H   0  0  0  0  0  0  0  0  0  0  0  0
  1  2  1  0  0  0  0
  1 14  1  0  0  0  0
  1 15  1  0  0  0  0
  1 16  1  0  0  0  0
  2  3  1  0  0  0  0
  2  8  2  0  0  0  0
  3  4  2  0  0  0  0
  3 17  1  0  0  0  0
  4  5  1  0  0  0  0
  4  6  1  0  0  0  0
  5 18  1  0  0  0  0
  5 19  1  0  0  0  0
  5 20  1  0  0  0  0
  6  7  2  0  0  0  0
  6 13  1  0  0  0  0
  7  8  1  0  0  0  0
  7  9  1  0  0  0  0
  8 21  1  0  0  0  0
  9 10  2  0  0  0  0
  9 11  1  0  0  0  0
 11 12  2  0  0  0  0
 11 13  1  0  0  0  0
 13 22  1  0  0  0  0
M  END
