
 OpenBabel02012214123D

 22 23  0  0  0  0  0  0  0  0999 V2000
    0.9296   -0.1219   -0.0526 C   0  0  0  0  0  0  0  0  0  0  0  0
    2.4279   -0.0558   -0.0589 C   0  0  0  0  0  0  0  0  0  0  0  0
    3.2032   -1.2429   -0.0640 C   0  0  0  0  0  0  0  0  0  0  0  0
    4.6145   -1.1868   -0.0704 C   0  0  0  0  0  0  0  0  0  0  0  0
    5.4424   -2.4379   -0.0763 C   0  0  0  0  0  0  0  0  0  0  0  0
    5.2142    0.0776   -0.0715 C   0  0  0  0  0  0  0  0  0  0  0  0
    4.4553    1.2318   -0.0664 C   0  0  0  0  0  0  0  0  0  0  0  0
    3.0648    1.2014   -0.0601 C   0  0  0  0  0  0  0  0  0  0  0  0
    5.3928    2.3451   -0.0692 C   0  0  0  0  0  0  0  0  0  0  0  0
    5.1298    3.5371   -0.0664 O   0  0  0  0  0  0  0  0  0  0  0  0
    6.7175    1.7262   -0.0763 C   0  0  0  0  0  0  0  0  0  0  0  0
    7.7865    2.3156   -0.0806 O   0  0  0  0  0  0  0  0  0  0  0  0
    6.5980    0.3802   -0.0775 N   0  0  0  0  0  0  0  0  0  0  0  0
    0.5678   -1.1720   -0.0521 H   0  0  0  0  0  0  0  0  0  0  0  0
    0.5304    0.3870   -0.9552 H   0  0  0  0  0  0  0  0  0  0  0  0
    0.5380    0.3853    0.8541 H   0  0  0  0  0  0  0  0  0  0  0  0
    2.7074   -2.2061   -0.0631 H   0  0  0  0  0  0  0  0  0  0  0  0
    4.8031   -3.3463   -0.0743 H   0  0  0  0  0  0  0  0  0  0  0  0
    6.0894   -2.4625    0.8256 H   0  0  0  0  0  0  0  0  0  0  0  0
    6.0802   -2.4599   -0.9848 H   0  0  0  0  0  0  0  0  0  0  0  0
    2.4937    2.1216   -0.0563 H   0  0  0  0  0  0  0  0  0  0  0  0
    7.3769   -0.2947   -0.0822 H   0  0  0  0  0  0  0  0  0  0  0  0
  1  2  1  0  0  0  0
  1 14  1  0  0  0  0
  1 15  1  0  0  0  0
  1 16  1  0  0  0  0
  2  3  1  0  0  0  0
  2  8  2  0  0  0  0
  3  4  2  0  0  0  0
  3 17  1  0  0  0  0
  4  5  1  0  0  0  0
  4  6  1  0  0  0  0
  5 18  1  0  0  0  0
  5 19  1  0  0  0  0
  5 20  1  0  0  0  0
  6  7  2  0  0  0  0
  6 13  1  0  0  0  0
  7  8  1  0  0  0  0
  7  9  1  0  0  0  0
  8 21  1  0  0  0  0
  9 10  2  0  0  0  0
  9 11  1  0  0  0  0
 11 12  2  0  0  0  0
 11 13  1  0  0  0  0
 13 22  1  0  0  0  0
M  END
