
 OpenBabel08112216243D

 23 23  0  0  0  0  0  0  0  0999 V2000
    1.1305    0.2342    0.5102 C   0  0  0  0  0  0  0  0  0  0  0  0
    2.3238    0.0409   -0.0675 C   0  0  0  0  0  0  0  0  0  0  0  0
    3.0932   -1.2230   -0.0334 C   0  0  0  0  0  0  0  0  0  0  0  0
    2.3954   -2.4413   -0.0563 C   0  0  0  0  0  0  0  0  0  0  0  0
    3.0720   -3.6551   -0.0404 C   0  0  0  0  0  0  0  0  0  0  0  0
    4.4626   -3.6707   -0.0174 C   0  0  0  0  0  0  0  0  0  0  0  0
    5.2084   -2.4797   -0.0334 C   0  0  0  0  0  0  0  0  0  0  0  0
    6.6816   -2.5699    0.0286 C   0  0  0  0  0  0  0  0  0  0  0  0
    7.4532   -3.4884   -0.5626 C   0  0  0  0  0  0  0  0  0  0  0  0
    6.9291   -4.4782   -1.3152 F   0  0  0  0  0  0  0  0  0  0  0  0
    8.7917   -3.4280   -0.3897 F   0  0  0  0  0  0  0  0  0  0  0  0
    4.5185   -1.2358   -0.0361 C   0  0  0  0  0  0  0  0  0  0  0  0
    5.2588    0.0848   -0.0420 C   0  0  0  0  0  0  0  0  0  0  0  0
    0.6337    1.1968    0.4327 H   0  0  0  0  0  0  0  0  0  0  0  0
    0.6163   -0.5379    1.0731 H   0  0  0  0  0  0  0  0  0  0  0  0
    2.7740    0.8728   -0.6021 H   0  0  0  0  0  0  0  0  0  0  0  0
    1.3091   -2.4598   -0.0928 H   0  0  0  0  0  0  0  0  0  0  0  0
    2.5161   -4.5883   -0.0449 H   0  0  0  0  0  0  0  0  0  0  0  0
    4.9572   -4.6401    0.0156 H   0  0  0  0  0  0  0  0  0  0  0  0
    7.1889   -1.8160    0.6258 H   0  0  0  0  0  0  0  0  0  0  0  0
    6.3457   -0.0150   -0.0526 H   0  0  0  0  0  0  0  0  0  0  0  0
    4.9990    0.6637    0.8507 H   0  0  0  0  0  0  0  0  0  0  0  0
    5.0015    0.6578   -0.9390 H   0  0  0  0  0  0  0  0  0  0  0  0
  1  2  2  0  0  0  0
  1 14  1  0  0  0  0
  1 15  1  0  0  0  0
  2  3  1  0  0  0  0
  2 16  1  0  0  0  0
  3  4  1  0  0  0  0
  3 12  2  0  0  0  0
  4  5  2  0  0  0  0
  4 17  1  0  0  0  0
  5  6  1  0  0  0  0
  5 18  1  0  0  0  0
  6  7  2  0  0  0  0
  6 19  1  0  0  0  0
  7  8  1  0  0  0  0
  7 12  1  0  0  0  0
  8  9  2  0  0  0  0
  8 20  1  0  0  0  0
  9 10  1  0  0  0  0
  9 11  1  0  0  0  0
 12 13  1  0  0  0  0
 13 21  1  0  0  0  0
 13 22  1  0  0  0  0
 13 23  1  0  0  0  0
M  END
