
 OpenBabel08122213043D

 23 23  0  0  0  0  0  0  0  0999 V2000
    1.1942    0.1715    0.6318 C   0  0  0  0  0  0  0  0  0  0  0  0
    2.3963   -0.0165    0.0690 C   0  0  0  0  0  0  0  0  0  0  0  0
    3.1666   -1.2811    0.1012 C   0  0  0  0  0  0  0  0  0  0  0  0
    2.4708   -2.4976    0.0772 C   0  0  0  0  0  0  0  0  0  0  0  0
    3.1465   -3.7111    0.0879 C   0  0  0  0  0  0  0  0  0  0  0  0
    4.5363   -3.7287    0.1066 C   0  0  0  0  0  0  0  0  0  0  0  0
    5.2834   -2.5373    0.0908 C   0  0  0  0  0  0  0  0  0  0  0  0
    6.7574   -2.6277    0.1482 C   0  0  0  0  0  0  0  0  0  0  0  0
    7.5279   -3.5607   -0.4266 C   0  0  0  0  0  0  0  0  0  0  0  0
    7.0030   -4.5659   -1.1580 F   0  0  0  0  0  0  0  0  0  0  0  0
    8.8655   -3.4919   -0.2637 F   0  0  0  0  0  0  0  0  0  0  0  0
    4.5935   -1.2928    0.0941 C   0  0  0  0  0  0  0  0  0  0  0  0
    5.3327    0.0284    0.0897 C   0  0  0  0  0  0  0  0  0  0  0  0
    0.6990    1.1347    0.5551 H   0  0  0  0  0  0  0  0  0  0  0  0
    0.6739   -0.6040    1.1832 H   0  0  0  0  0  0  0  0  0  0  0  0
    2.8511    0.8205   -0.4542 H   0  0  0  0  0  0  0  0  0  0  0  0
    1.3835   -2.5173    0.0431 H   0  0  0  0  0  0  0  0  0  0  0  0
    2.5903   -4.6448    0.0820 H   0  0  0  0  0  0  0  0  0  0  0  0
    5.0294   -4.6979    0.1355 H   0  0  0  0  0  0  0  0  0  0  0  0
    7.2688   -1.8639    0.7221 H   0  0  0  0  0  0  0  0  0  0  0  0
    6.4191   -0.0690    0.0816 H   0  0  0  0  0  0  0  0  0  0  0  0
    5.0705    0.6067    0.9826 H   0  0  0  0  0  0  0  0  0  0  0  0
    5.0757    0.6017   -0.8070 H   0  0  0  0  0  0  0  0  0  0  0  0
  1  2  2  0  0  0  0
  1 14  1  0  0  0  0
  1 15  1  0  0  0  0
  2  3  1  0  0  0  0
  2 16  1  0  0  0  0
  3  4  1  0  0  0  0
  3 12  2  0  0  0  0
  4  5  2  0  0  0  0
  4 17  1  0  0  0  0
  5  6  1  0  0  0  0
  5 18  1  0  0  0  0
  6  7  2  0  0  0  0
  6 19  1  0  0  0  0
  7  8  1  0  0  0  0
  7 12  1  0  0  0  0
  8  9  2  0  0  0  0
  8 20  1  0  0  0  0
  9 10  1  0  0  0  0
  9 11  1  0  0  0  0
 12 13  1  0  0  0  0
 13 21  1  0  0  0  0
 13 22  1  0  0  0  0
 13 23  1  0  0  0  0
M  END
