  23

 C          2.0416300000        0.6450800000       -1.0417000000
 C          2.3963000000       -0.0165000000        0.0690000000
 C          3.1666000000       -1.2811000000        0.1012000000
 C          2.4708000000       -2.4976000000        0.0772000000
 C          3.1465000000       -3.7111000000        0.0879000000
 C          4.5363000000       -3.7287000000        0.1066000000
 C          5.2834000000       -2.5373000000        0.0908000000
 C          6.7574000000       -2.6277000000        0.1482000000
 C          7.5964600000       -1.7344000000        0.6890700000
 F          7.1516700000       -0.6003300000        1.2695500000
 F          8.9229400000       -1.9774600000        0.6464100000
 C          4.5935000000       -1.2928000000        0.0941000000
 C          5.3327000000        0.0284000000        0.0897000000
 H          1.4781700000        1.5704600000       -0.9707000000
 H          2.2854500000        0.2955900000       -2.0389800000
 H          2.0984100000        0.3997500000        1.0277200000
 H          1.3835000000       -2.5173000000        0.0431000000
 H          2.5903000000       -4.6448000000        0.0820000000
 H          5.0294000000       -4.6979000000        0.1355000000
 H          7.2080300000       -3.5046400000       -0.3014500000
 H          6.4191000000       -0.0690000000        0.0816000000
 H          5.0705000000        0.6067000000        0.9826000000
 H          5.0757000000        0.6017000000       -0.8070000000
