 xtb: 6.5.0 (unknown)
          08112216243D

 23  0  0     0  0            999 V2000
   -3.9185    1.4716   -0.3683 c   0  0  0  0  0  0  0  0  0  0  0  0
   -2.6986    1.3715    0.1396 c   0  0  0  0  0  0  0  0  0  0  0  0
   -1.8415    0.1893    0.0121 c   0  0  0  0  0  0  0  0  0  0  0  0
   -2.4076   -1.0800    0.0814 c   0  0  0  0  0  0  0  0  0  0  0  0
   -1.6211   -2.2116   -0.0218 c   0  0  0  0  0  0  0  0  0  0  0  0
   -0.2554   -2.0807   -0.1672 c   0  0  0  0  0  0  0  0  0  0  0  0
    0.3380   -0.8187   -0.2086 c   0  0  0  0  0  0  0  0  0  0  0  0
    1.8005   -0.7857   -0.3215 c   0  0  0  0  0  0  0  0  0  0  0  0
    2.6218   -0.0533    0.4091 c   0  0  0  0  0  0  0  0  0  0  0  0
    2.2962    0.8024    1.3707 f   0  0  0  0  0  0  0  0  0  0  0  0
    3.9501   -0.0888    0.2932 f   0  0  0  0  0  0  0  0  0  0  0  0
   -0.4556    0.3305   -0.1532 c   0  0  0  0  0  0  0  0  0  0  0  0
    0.1292    1.6985   -0.3382 c   0  0  0  0  0  0  0  0  0  0  0  0
   -4.5166    2.3566   -0.2319 h   0  0  0  0  0  0  0  0  0  0  0  0
   -4.3614    0.6830   -0.9543 h   0  0  0  0  0  0  0  0  0  0  0  0
   -2.2818    2.1992    0.6984 h   0  0  0  0  0  0  0  0  0  0  0  0
   -3.4731   -1.1734    0.2275 h   0  0  0  0  0  0  0  0  0  0  0  0
   -2.0702   -3.1925    0.0201 h   0  0  0  0  0  0  0  0  0  0  0  0
    0.3708   -2.9585   -0.2309 h   0  0  0  0  0  0  0  0  0  0  0  0
    2.2612   -1.4753   -1.0135 h   0  0  0  0  0  0  0  0  0  0  0  0
    1.0835    1.6492   -0.8565 h   0  0  0  0  0  0  0  0  0  0  0  0
    0.2930    2.1817    0.6252 h   0  0  0  0  0  0  0  0  0  0  0  0
   -0.5463    2.3202   -0.9217 h   0  0  0  0  0  0  0  0  0  0  0  0
M  END
