 xtb: 6.5.0 (unknown)
          08122213043D

 23  0  0     0  0            999 V2000
   -3.9204    1.4677   -0.3700 c   0  0  0  0  0  0  0  0  0  0  0  0
   -2.7015    1.3710    0.1409 c   0  0  0  0  0  0  0  0  0  0  0  0
   -1.8427    0.1897    0.0163 c   0  0  0  0  0  0  0  0  0  0  0  0
   -2.4072   -1.0801    0.0890 c   0  0  0  0  0  0  0  0  0  0  0  0
   -1.6196   -2.2112   -0.0141 c   0  0  0  0  0  0  0  0  0  0  0  0
   -0.2547   -2.0792   -0.1654 c   0  0  0  0  0  0  0  0  0  0  0  0
    0.3369   -0.8164   -0.2105 c   0  0  0  0  0  0  0  0  0  0  0  0
    1.7992   -0.7815   -0.3311 c   0  0  0  0  0  0  0  0  0  0  0  0
    2.6232   -0.0544    0.4016 c   0  0  0  0  0  0  0  0  0  0  0  0
    2.2994    0.7938    1.3704 f   0  0  0  0  0  0  0  0  0  0  0  0
    3.9510   -0.0880    0.2802 f   0  0  0  0  0  0  0  0  0  0  0  0
   -0.4572    0.3321   -0.1519 c   0  0  0  0  0  0  0  0  0  0  0  0
    0.1260    1.7010   -0.3344 c   0  0  0  0  0  0  0  0  0  0  0  0
   -4.5221    2.3509   -0.2394 h   0  0  0  0  0  0  0  0  0  0  0  0
   -4.3599    0.6750   -0.9540 h   0  0  0  0  0  0  0  0  0  0  0  0
   -2.2858    2.2004    0.6980 h   0  0  0  0  0  0  0  0  0  0  0  0
   -3.4722   -1.1748    0.2381 h   0  0  0  0  0  0  0  0  0  0  0  0
   -2.0676   -3.1925    0.0316 h   0  0  0  0  0  0  0  0  0  0  0  0
    0.3727   -2.9559   -0.2309 h   0  0  0  0  0  0  0  0  0  0  0  0
    2.2565   -1.4657   -1.0309 h   0  0  0  0  0  0  0  0  0  0  0  0
    1.0863    1.6534   -0.8413 h   0  0  0  0  0  0  0  0  0  0  0  0
    0.2764    2.1868    0.6298 h   0  0  0  0  0  0  0  0  0  0  0  0
   -0.5436    2.3196   -0.9277 h   0  0  0  0  0  0  0  0  0  0  0  0
M  END
