
  xtb     02032211353D
 xtb: 6.4.1 (23d549d)
 41 41  0     0  0            999 V2000
   -5.8308   -0.0388   -0.4668 C   0  0  0  0  0  0  0  0  0  0  0  0
   -4.8398    0.6703    0.0660 C   0  0  0  0  0  0  0  0  0  0  0  0
   -3.4663    0.2533    0.1265 C   0  0  0  0  0  0  0  0  0  0  0  0
   -2.4120    0.9474    0.6571 C   0  0  0  0  0  0  0  0  0  0  0  0
   -1.1736    0.2748    0.5894 C   0  0  0  0  0  0  0  0  0  0  0  0
    0.1047    0.9344    1.0031 C   0  0  0  0  0  0  0  0  0  0  0  0
    0.4744    2.0390    0.0058 C   0  0  0  0  0  0  0  0  0  0  0  0
    1.7903    2.7392    0.3471 C   0  0  0  0  0  0  0  0  0  0  0  0
    3.0103    1.8174    0.4105 C   0  0  0  0  0  0  0  0  0  0  0  0
    3.2561    1.0520   -0.8882 C   0  0  0  0  0  0  0  0  0  0  0  0
    4.5526    0.2417   -0.8693 C   0  0  0  0  0  0  0  0  0  0  0  0
    4.5025   -0.9491    0.0862 C   0  0  0  0  0  0  0  0  0  0  0  0
    5.7524   -1.8136   -0.0264 C   0  0  0  0  0  0  0  0  0  0  0  0
   -1.2851   -0.9608   -0.0032 C   0  0  0  0  0  0  0  0  0  0  0  0
   -0.3100   -1.9936   -0.2766 C   0  0  0  0  0  0  0  0  0  0  0  0
    0.7203   -2.3355    0.4896 C   0  0  0  0  0  0  0  0  0  0  0  0
   -2.9279   -1.2749   -0.4998 S   0  0  0  0  0  0  0  0  0  0  0  0
   -6.8424    0.3256   -0.4849 H   0  0  0  0  0  0  0  0  0  0  0  0
   -5.6543   -1.0089   -0.9018 H   0  0  0  0  0  0  0  0  0  0  0  0
   -5.0332    1.6438    0.4994 H   0  0  0  0  0  0  0  0  0  0  0  0
   -2.5228    1.9248    1.0946 H   0  0  0  0  0  0  0  0  0  0  0  0
    0.9056    0.2018    1.0329 H   0  0  0  0  0  0  0  0  0  0  0  0
   -0.0107    1.3682    1.9995 H   0  0  0  0  0  0  0  0  0  0  0  0
   -0.3220    2.7867   -0.0145 H   0  0  0  0  0  0  0  0  0  0  0  0
    0.5358    1.6052   -0.9938 H   0  0  0  0  0  0  0  0  0  0  0  0
    1.6848    3.2401    1.3131 H   0  0  0  0  0  0  0  0  0  0  0  0
    1.9703    3.5111   -0.4055 H   0  0  0  0  0  0  0  0  0  0  0  0
    2.8927    1.1157    1.2365 H   0  0  0  0  0  0  0  0  0  0  0  0
    3.8885    2.4306    0.6292 H   0  0  0  0  0  0  0  0  0  0  0  0
    3.2988    1.7683   -1.7127 H   0  0  0  0  0  0  0  0  0  0  0  0
    2.4251    0.3708   -1.0804 H   0  0  0  0  0  0  0  0  0  0  0  0
    5.3866    0.8922   -0.5952 H   0  0  0  0  0  0  0  0  0  0  0  0
    4.7445   -0.1318   -1.8785 H   0  0  0  0  0  0  0  0  0  0  0  0
    3.6209   -1.5529   -0.1423 H   0  0  0  0  0  0  0  0  0  0  0  0
    4.4071   -0.5949    1.1140 H   0  0  0  0  0  0  0  0  0  0  0  0
    5.8567   -2.2050   -1.0362 H   0  0  0  0  0  0  0  0  0  0  0  0
    5.7023   -2.6531    0.6634 H   0  0  0  0  0  0  0  0  0  0  0  0
    6.6410   -1.2308    0.2068 H   0  0  0  0  0  0  0  0  0  0  0  0
   -0.5030   -2.5578   -1.1818 H   0  0  0  0  0  0  0  0  0  0  0  0
    0.9261   -1.8631    1.4343 H   0  0  0  0  0  0  0  0  0  0  0  0
    1.3844   -3.1322    0.2010 H   0  0  0  0  0  0  0  0  0  0  0  0
  1  2  2  0  0  0  0
  2  3  1  0  0  0  0
  3  4  2  0  0  0  0
  4  5  4  0  0  0  0
  5  6  1  0  0  0  0
  6  7  1  0  0  0  0
  7  8  1  0  0  0  0
  8  9  1  0  0  0  0
  9 10  1  0  0  0  0
 10 11  1  0  0  0  0
 11 12  1  0  0  0  0
 12 13  1  0  0  0  0
  5 14  4  0  0  0  0
 14 15  1  0  0  0  0
 15 16  2  0  0  0  0
  3 17  1  0  0  0  0
 14 17  1  0  0  0  0
  1 18  1  0  0  0  0
  1 19  1  0  0  0  0
  2 20  1  0  0  0  0
  4 21  1  0  0  0  0
  6 22  1  0  0  0  0
  6 23  1  0  0  0  0
  7 24  1  0  0  0  0
  7 25  1  0  0  0  0
  8 26  1  0  0  0  0
  8 27  1  0  0  0  0
  9 28  1  0  0  0  0
  9 29  1  0  0  0  0
 10 30  1  0  0  0  0
 10 31  1  0  0  0  0
 11 32  1  0  0  0  0
 11 33  1  0  0  0  0
 12 34  1  0  0  0  0
 12 35  1  0  0  0  0
 13 36  1  0  0  0  0
 13 37  1  0  0  0  0
 13 38  1  0  0  0  0
 15 39  1  0  0  0  0
 16 40  1  0  0  0  0
 16 41  1  0  0  0  0
M  END
