
  xtb     02032211353D
 xtb: 6.4.1 (23d549d)
 22 22  0     0  0            999 V2000
   -3.8611   -0.2971    0.1367 C   0  0  0  0  0  0  0  0  0  0  0  0
   -2.9011    0.6138    0.0326 C   0  0  0  0  0  0  0  0  0  0  0  0
   -1.4662    0.3642   -0.0203 C   0  0  0  0  0  0  0  0  0  0  0  0
   -0.8920   -0.9080    0.0042 C   0  0  0  0  0  0  0  0  0  0  0  0
    0.4844   -1.0543   -0.0346 C   0  0  0  0  0  0  0  0  0  0  0  0
    1.1042   -2.4167    0.0169 C   0  0  0  0  0  0  0  0  0  0  0  0
    1.2723    0.1067   -0.1036 C   0  0  0  0  0  0  0  0  0  0  0  0
    2.7283    0.0474   -0.1553 C   0  0  0  0  0  0  0  0  0  0  0  0
    3.5398    0.9812    0.3244 C   0  0  0  0  0  0  0  0  0  0  0  0
    0.5965    1.3291   -0.1437 C   0  0  0  0  0  0  0  0  0  0  0  0
   -0.7093    1.4613   -0.1001 N   0  0  0  0  0  0  0  0  0  0  0  0
   -4.8991   -0.0134    0.1697 H   0  0  0  0  0  0  0  0  0  0  0  0
   -3.6616   -1.3539    0.1944 H   0  0  0  0  0  0  0  0  0  0  0  0
   -3.1503    1.6650   -0.0188 H   0  0  0  0  0  0  0  0  0  0  0  0
   -1.5190   -1.7845    0.0592 H   0  0  0  0  0  0  0  0  0  0  0  0
    0.3429   -3.1784    0.1665 H   0  0  0  0  0  0  0  0  0  0  0  0
    1.8263   -2.4782    0.8296 H   0  0  0  0  0  0  0  0  0  0  0  0
    1.6268   -2.6324   -0.9152 H   0  0  0  0  0  0  0  0  0  0  0  0
    3.1493   -0.8359   -0.6180 H   0  0  0  0  0  0  0  0  0  0  0  0
    3.1699    1.8610    0.8233 H   0  0  0  0  0  0  0  0  0  0  0  0
    4.6101    0.8897    0.2504 H   0  0  0  0  0  0  0  0  0  0  0  0
    1.1515    2.2541   -0.2341 H   0  0  0  0  0  0  0  0  0  0  0  0
  1  2  2  0  0  0  0
  2  3  1  0  0  0  0
  3  4  4  0  0  0  0
  4  5  4  0  0  0  0
  5  6  1  0  0  0  0
  5  7  4  0  0  0  0
  7  8  1  0  0  0  0
  8  9  2  0  0  0  0
  7 10  4  0  0  0  0
  3 11  4  0  0  0  0
 10 11  4  0  0  0  0
  1 12  1  0  0  0  0
  1 13  1  0  0  0  0
  2 14  1  0  0  0  0
  4 15  1  0  0  0  0
  6 16  1  0  0  0  0
  6 17  1  0  0  0  0
  6 18  1  0  0  0  0
  8 19  1  0  0  0  0
  9 20  1  0  0  0  0
  9 21  1  0  0  0  0
 10 22  1  0  0  0  0
M  END
