
 OpenBabel02032210593D

 22 22  0  0  0  0  0  0  0  0999 V2000
    2.7142   -1.2370   -0.6231 C   0  0  0  0  0  0  0  0  0  0  0  0
    2.3408   -0.0329   -0.1617 C   0  0  0  0  0  0  0  0  0  0  0  0
    2.9963    1.2270   -0.5341 C   0  0  0  0  0  0  0  0  0  0  0  0
    2.5329    2.4364   -0.0364 C   0  0  0  0  0  0  0  0  0  0  0  0
    3.1553    3.6411   -0.4240 C   0  0  0  0  0  0  0  0  0  0  0  0
    2.6149    4.9370    0.1240 C   0  0  0  0  0  0  0  0  0  0  0  0
    1.5712    4.7618    0.9871 F   0  0  0  0  0  0  0  0  0  0  0  0
    3.5408    5.6530    0.8174 F   0  0  0  0  0  0  0  0  0  0  0  0
    2.1412    5.7657   -0.8475 F   0  0  0  0  0  0  0  0  0  0  0  0
    4.2486    3.5893   -1.3062 C   0  0  0  0  0  0  0  0  0  0  0  0
    4.9275    4.7920   -1.8238 C   0  0  0  0  0  0  0  0  0  0  0  0
    6.2110    4.8456   -2.2078 C   0  0  0  0  0  0  0  0  0  0  0  0
    4.6286    2.3209   -1.7473 C   0  0  0  0  0  0  0  0  0  0  0  0
    4.0398    1.1578   -1.3819 N   0  0  0  0  0  0  0  0  0  0  0  0
    2.1904   -2.1358   -0.3225 H   0  0  0  0  0  0  0  0  0  0  0  0
    3.5460   -1.3506   -1.3120 H   0  0  0  0  0  0  0  0  0  0  0  0
    1.4998    0.0331    0.5225 H   0  0  0  0  0  0  0  0  0  0  0  0
    1.6844    2.4520    0.6439 H   0  0  0  0  0  0  0  0  0  0  0  0
    4.3294    5.6987   -1.9098 H   0  0  0  0  0  0  0  0  0  0  0  0
    6.8857    3.9967   -2.1509 H   0  0  0  0  0  0  0  0  0  0  0  0
    6.6267    5.7675   -2.6019 H   0  0  0  0  0  0  0  0  0  0  0  0
    5.4431    2.1851   -2.4543 H   0  0  0  0  0  0  0  0  0  0  0  0
  1  2  2  0  0  0  0
  1 15  1  0  0  0  0
  1 16  1  0  0  0  0
  2  3  1  0  0  0  0
  2 17  1  0  0  0  0
  3  4  1  0  0  0  0
  3 14  2  0  0  0  0
  4  5  2  0  0  0  0
  4 18  1  0  0  0  0
  5  6  1  0  0  0  0
  5 10  1  0  0  0  0
  6  7  1  0  0  0  0
  6  8  1  0  0  0  0
  6  9  1  0  0  0  0
 10 11  1  0  0  0  0
 10 13  2  0  0  0  0
 11 12  2  0  0  0  0
 11 19  1  0  0  0  0
 12 20  1  0  0  0  0
 12 21  1  0  0  0  0
 13 14  1  0  0  0  0
 13 22  1  0  0  0  0
M  END
