
  xtb     02012213463D
 xtb: 6.4.1 (23d549d)
 21 22  0     0  0            999 V2000
    0.7995   -0.0406   -0.0782 c   0  0  0  0  0  0  0  0  0  0  0  0
    2.2892    0.0109   -0.0773 c   0  0  0  0  0  0  0  0  0  0  0  0
    3.0783    1.5742   -0.0757 s   0  0  0  0  0  0  0  0  0  0  0  0
    3.1681   -1.0213   -0.0775 c   0  0  0  0  0  0  0  0  0  0  0  0
    2.7915   -2.4674   -0.0788 c   0  0  0  0  0  0  0  0  0  0  0  0
    4.5343   -0.5819   -0.0764 c   0  0  0  0  0  0  0  0  0  0  0  0
    4.6459    0.8202   -0.0753 c   0  0  0  0  0  0  0  0  0  0  0  0
    5.8765    1.4569   -0.0742 c   0  0  0  0  0  0  0  0  0  0  0  0
    7.0160    0.6785   -0.0741 c   0  0  0  0  0  0  0  0  0  0  0  0
    6.9273   -0.7126   -0.0751 c   0  0  0  0  0  0  0  0  0  0  0  0
    5.7031   -1.3443   -0.0763 c   0  0  0  0  0  0  0  0  0  0  0  0
    0.3901    0.9663   -0.0777 h   0  0  0  0  0  0  0  0  0  0  0  0
    0.4320   -0.5643    0.8045 h   0  0  0  0  0  0  0  0  0  0  0  0
    0.4330   -0.5631   -0.9621 h   0  0  0  0  0  0  0  0  0  0  0  0
    1.7124   -2.5897   -0.0796 h   0  0  0  0  0  0  0  0  0  0  0  0
    3.1990   -2.9615    0.8029 h   0  0  0  0  0  0  0  0  0  0  0  0
    3.2001   -2.9601   -0.9608 h   0  0  0  0  0  0  0  0  0  0  0  0
    5.9338    2.5346   -0.0734 h   0  0  0  0  0  0  0  0  0  0  0  0
    7.9864    1.1519   -0.0732 h   0  0  0  0  0  0  0  0  0  0  0  0
    7.8336   -1.3002   -0.0750 h   0  0  0  0  0  0  0  0  0  0  0  0
    5.6400   -2.4222   -0.0771 h   0  0  0  0  0  0  0  0  0  0  0  0
  1  2  1  0  0  0  0
  2  3  1  0  0  0  0
  2  4  2  0  0  0  0
  4  5  1  0  0  0  0
  4  6  1  0  0  0  0
  3  7  1  0  0  0  0
  6  7  4  0  0  0  0
  7  8  4  0  0  0  0
  8  9  4  0  0  0  0
  9 10  4  0  0  0  0
  6 11  4  0  0  0  0
 10 11  4  0  0  0  0
  1 12  1  0  0  0  0
  1 13  1  0  0  0  0
  1 14  1  0  0  0  0
  5 15  1  0  0  0  0
  5 16  1  0  0  0  0
  5 17  1  0  0  0  0
  8 18  1  0  0  0  0
  9 19  1  0  0  0  0
 10 20  1  0  0  0  0
 11 21  1  0  0  0  0
M  END
