
  xtb     02032211363D
 xtb: 6.4.1 (23d549d)
 25 26  0     0  0            999 V2000
    3.9269   -0.9538   -0.2747 C   0  0  0  0  0  0  0  0  0  0  0  0
    3.0828   -0.0816    0.2580 C   0  0  0  0  0  0  0  0  0  0  0  0
    1.6254   -0.1438    0.1230 C   0  0  0  0  0  0  0  0  0  0  0  0
    1.0017   -1.3818    0.1422 C   0  0  0  0  0  0  0  0  0  0  0  0
   -0.3808   -1.4376    0.0574 C   0  0  0  0  0  0  0  0  0  0  0  0
   -1.2297   -2.5189    0.0334 N   0  0  0  0  0  0  0  0  0  0  0  0
   -2.4164   -2.0208   -0.0861 C   0  0  0  0  0  0  0  0  0  0  0  0
   -2.4357   -0.6545   -0.1301 N   0  0  0  0  0  0  0  0  0  0  0  0
   -1.1312   -0.2446   -0.0392 C   0  0  0  0  0  0  0  0  0  0  0  0
   -0.5365    1.0159   -0.0738 C   0  0  0  0  0  0  0  0  0  0  0  0
   -1.3240    2.2358   -0.2370 C   0  0  0  0  0  0  0  0  0  0  0  0
   -2.5072    2.4637    0.3205 C   0  0  0  0  0  0  0  0  0  0  0  0
    0.8651    1.0495    0.0076 C   0  0  0  0  0  0  0  0  0  0  0  0
    1.5106    2.2677   -0.0954 N   0  0  0  0  0  0  0  0  0  0  0  0
    4.9899   -0.8827   -0.1184 H   0  0  0  0  0  0  0  0  0  0  0  0
    3.5868   -1.7644   -0.8963 H   0  0  0  0  0  0  0  0  0  0  0  0
    3.4813    0.7280    0.8613 H   0  0  0  0  0  0  0  0  0  0  0  0
    1.5777   -2.2860    0.2471 H   0  0  0  0  0  0  0  0  0  0  0  0
   -3.3153   -2.6045   -0.1391 H   0  0  0  0  0  0  0  0  0  0  0  0
   -3.2351   -0.0613   -0.2727 H   0  0  0  0  0  0  0  0  0  0  0  0
   -0.8889    2.9910   -0.8814 H   0  0  0  0  0  0  0  0  0  0  0  0
   -2.9626    1.7681    1.0065 H   0  0  0  0  0  0  0  0  0  0  0  0
   -3.0505    3.3759    0.1407 H   0  0  0  0  0  0  0  0  0  0  0  0
    0.9924    3.0753    0.2067 H   0  0  0  0  0  0  0  0  0  0  0  0
    2.4844    2.2794    0.1567 H   0  0  0  0  0  0  0  0  0  0  0  0
  1  2  2  0  0  0  0
  2  3  1  0  0  0  0
  3  4  4  0  0  0  0
  4  5  4  0  0  0  0
  5  6  1  0  0  0  0
  6  7  2  0  0  0  0
  7  8  4  0  0  0  0
  5  9  4  0  0  0  0
  8  9  1  0  0  0  0
  9 10  4  0  0  0  0
 10 11  1  0  0  0  0
 11 12  2  0  0  0  0
  3 13  4  0  0  0  0
 10 13  4  0  0  0  0
 13 14  1  0  0  0  0
  1 15  1  0  0  0  0
  1 16  1  0  0  0  0
  2 17  1  0  0  0  0
  4 18  1  0  0  0  0
  7 19  1  0  0  0  0
  8 20  1  0  0  0  0
 11 21  1  0  0  0  0
 12 22  1  0  0  0  0
 12 23  1  0  0  0  0
 14 24  1  0  0  0  0
 14 25  1  0  0  0  0
M  END
