 xtb: 6.5.0 (unknown)
          08122213083D

 26  0  0     0  0            999 V2000
    1.4990   -3.6157    0.6240 C   0  0  0  0  0  0  0  0  0  0  0  0
    0.7060   -2.9069   -0.1663 C   0  0  0  0  0  0  0  0  0  0  0  0
    0.5628   -1.4478   -0.1282 C   0  0  0  0  0  0  0  0  0  0  0  0
   -0.7110   -0.9320   -0.1256 C   0  0  0  0  0  0  0  0  0  0  0  0
   -0.9690    0.4489   -0.0009 C   0  0  0  0  0  0  0  0  0  0  0  0
   -2.3027    1.0235    0.0274 C   0  0  0  0  0  0  0  0  0  0  0  0
   -3.4664    0.4033   -0.0981 C   0  0  0  0  0  0  0  0  0  0  0  0
   -3.6901   -0.8933   -0.2798 F   0  0  0  0  0  0  0  0  0  0  0  0
   -4.6345    1.0387   -0.0577 F   0  0  0  0  0  0  0  0  0  0  0  0
    0.1230    1.2865    0.1125 C   0  0  0  0  0  0  0  0  0  0  0  0
   -0.0775    2.6159    0.2609 F   0  0  0  0  0  0  0  0  0  0  0  0
    1.4522    0.8266    0.0638 C   0  0  0  0  0  0  0  0  0  0  0  0
    2.5458    1.7159    0.1377 C   0  0  0  0  0  0  0  0  0  0  0  0
    3.8257    1.2477    0.0451 C   0  0  0  0  0  0  0  0  0  0  0  0
    4.0593   -0.1212   -0.1482 C   0  0  0  0  0  0  0  0  0  0  0  0
    3.0165   -1.0053   -0.2098 C   0  0  0  0  0  0  0  0  0  0  0  0
    1.6830   -0.5690   -0.0773 C   0  0  0  0  0  0  0  0  0  0  0  0
    1.5287   -4.6908    0.5732 H   0  0  0  0  0  0  0  0  0  0  0  0
    2.1264   -3.1537    1.3681 H   0  0  0  0  0  0  0  0  0  0  0  0
    0.0452   -3.4138   -0.8585 H   0  0  0  0  0  0  0  0  0  0  0  0
   -1.5429   -1.6142   -0.1893 H   0  0  0  0  0  0  0  0  0  0  0  0
   -2.3608    2.0939    0.1633 H   0  0  0  0  0  0  0  0  0  0  0  0
    2.3481    2.7703    0.2581 H   0  0  0  0  0  0  0  0  0  0  0  0
    4.6608    1.9295    0.1014 H   0  0  0  0  0  0  0  0  0  0  0  0
    5.0739   -0.4753   -0.2561 H   0  0  0  0  0  0  0  0  0  0  0  0
    3.2075   -2.0526   -0.3838 H   0  0  0  0  0  0  0  0  0  0  0  0
M  END
