
 OpenBabel02032210493D

 19 19  0  0  0  0  0  0  0  0999 V2000
    2.7315   -1.0902    0.5453 C   0  0  0  0  0  0  0  0  0  0  0  0
    2.2292    0.0619    0.0773 C   0  0  0  0  0  0  0  0  0  0  0  0
    3.0301    1.0780   -0.6340 C   0  0  0  0  0  0  0  0  0  0  0  0
    4.1081    0.5789   -1.2988 N   0  0  0  0  0  0  0  0  0  0  0  0
    4.8739    1.4379   -1.9987 C   0  0  0  0  0  0  0  0  0  0  0  0
    4.6278    2.7942   -2.0671 C   0  0  0  0  0  0  0  0  0  0  0  0
    3.5302    3.2978   -1.3736 C   0  0  0  0  0  0  0  0  0  0  0  0
    2.6884    2.4446   -0.6458 C   0  0  0  0  0  0  0  0  0  0  0  0
    1.5724    2.9890    0.1531 C   0  0  0  0  0  0  0  0  0  0  0  0
    0.8383    4.0742   -0.1172 C   0  0  0  0  0  0  0  0  0  0  0  0
    1.0533    4.8205   -1.2201 F   0  0  0  0  0  0  0  0  0  0  0  0
   -0.1459    4.4252    0.7373 F   0  0  0  0  0  0  0  0  0  0  0  0
    2.1001   -1.8085    1.0558 H   0  0  0  0  0  0  0  0  0  0  0  0
    3.7827   -1.3399    0.4287 H   0  0  0  0  0  0  0  0  0  0  0  0
    1.1729    0.2696    0.2127 H   0  0  0  0  0  0  0  0  0  0  0  0
    5.7183    0.9920   -2.5163 H   0  0  0  0  0  0  0  0  0  0  0  0
    5.2789    3.4478   -2.6365 H   0  0  0  0  0  0  0  0  0  0  0  0
    3.3542    4.3710   -1.4055 H   0  0  0  0  0  0  0  0  0  0  0  0
    1.3252    2.4462    1.0614 H   0  0  0  0  0  0  0  0  0  0  0  0
  1  2  2  0  0  0  0
  1 13  1  0  0  0  0
  1 14  1  0  0  0  0
  2  3  1  0  0  0  0
  2 15  1  0  0  0  0
  3  4  1  0  0  0  0
  3  8  2  0  0  0  0
  4  5  2  0  0  0  0
  5  6  1  0  0  0  0
  5 16  1  0  0  0  0
  6  7  2  0  0  0  0
  6 17  1  0  0  0  0
  7  8  1  0  0  0  0
  7 18  1  0  0  0  0
  8  9  1  0  0  0  0
  9 10  2  0  0  0  0
  9 19  1  0  0  0  0
 10 11  1  0  0  0  0
 10 12  1  0  0  0  0
M  END
