
  xtb     02032211363D
 xtb: 6.4.1 (23d549d)
 29 30  0     0  0            999 V2000
   -0.8590   -3.4659    0.6721 C   0  0  0  0  0  0  0  0  0  0  0  0
   -1.2607   -2.4639   -0.0981 C   0  0  0  0  0  0  0  0  0  0  0  0
   -0.7004   -1.1135   -0.0910 C   0  0  0  0  0  0  0  0  0  0  0  0
   -1.5837   -0.0349   -0.0924 C   0  0  0  0  0  0  0  0  0  0  0  0
   -2.9105   -0.3535   -0.1280 O   0  0  0  0  0  0  0  0  0  0  0  0
   -3.8634    0.6800   -0.1424 C   0  0  0  0  0  0  0  0  0  0  0  0
   -1.1082    1.2790   -0.0247 C   0  0  0  0  0  0  0  0  0  0  0  0
    0.2398    1.5658    0.0431 C   0  0  0  0  0  0  0  0  0  0  0  0
    0.7616    2.9190    0.1471 C   0  0  0  0  0  0  0  0  0  0  0  0
    0.0567    4.0443    0.2026 C   0  0  0  0  0  0  0  0  0  0  0  0
    1.1680    0.4866    0.0012 C   0  0  0  0  0  0  0  0  0  0  0  0
    2.4828    0.7747    0.0388 N   0  0  0  0  0  0  0  0  0  0  0  0
    3.3513   -0.1922   -0.0376 C   0  0  0  0  0  0  0  0  0  0  0  0
    2.9954   -1.5410   -0.2005 C   0  0  0  0  0  0  0  0  0  0  0  0
    1.6671   -1.8654   -0.2301 C   0  0  0  0  0  0  0  0  0  0  0  0
    0.6914   -0.8530   -0.0881 C   0  0  0  0  0  0  0  0  0  0  0  0
   -1.3323   -4.4324    0.6297 H   0  0  0  0  0  0  0  0  0  0  0  0
   -0.0644   -3.3539    1.3914 H   0  0  0  0  0  0  0  0  0  0  0  0
   -2.1119   -2.5957   -0.7541 H   0  0  0  0  0  0  0  0  0  0  0  0
   -4.8309    0.1823   -0.1936 H   0  0  0  0  0  0  0  0  0  0  0  0
   -3.7459    1.3286   -1.0167 H   0  0  0  0  0  0  0  0  0  0  0  0
   -3.8191    1.2834    0.7702 H   0  0  0  0  0  0  0  0  0  0  0  0
   -1.8113    2.0954   -0.0087 H   0  0  0  0  0  0  0  0  0  0  0  0
    1.8412    2.9587    0.1791 H   0  0  0  0  0  0  0  0  0  0  0  0
   -1.0200    4.0711    0.1769 H   0  0  0  0  0  0  0  0  0  0  0  0
    0.5439    5.0012    0.2776 H   0  0  0  0  0  0  0  0  0  0  0  0
    4.3925    0.1027    0.0072 H   0  0  0  0  0  0  0  0  0  0  0  0
    3.7599   -2.2945   -0.3132 H   0  0  0  0  0  0  0  0  0  0  0  0
    1.3523   -2.8864   -0.3854 H   0  0  0  0  0  0  0  0  0  0  0  0
  1  2  2  0  0  0  0
  2  3  1  0  0  0  0
  3  4  4  0  0  0  0
  4  5  1  0  0  0  0
  5  6  1  0  0  0  0
  4  7  4  0  0  0  0
  7  8  4  0  0  0  0
  8  9  1  0  0  0  0
  9 10  2  0  0  0  0
  8 11  4  0  0  0  0
 11 12  4  0  0  0  0
 12 13  2  0  0  0  0
 13 14  4  0  0  0  0
 14 15  2  0  0  0  0
  3 16  4  0  0  0  0
 11 16  4  0  0  0  0
 15 16  4  0  0  0  0
  1 17  1  0  0  0  0
  1 18  1  0  0  0  0
  2 19  1  0  0  0  0
  6 20  1  0  0  0  0
  6 21  1  0  0  0  0
  6 22  1  0  0  0  0
  7 23  1  0  0  0  0
  9 24  1  0  0  0  0
 10 25  1  0  0  0  0
 10 26  1  0  0  0  0
 13 27  1  0  0  0  0
 14 28  1  0  0  0  0
 15 29  1  0  0  0  0
M  END
