
  xtb     02032211263D
 xtb: 6.4.1 (23d549d)
 23 24  0     0  0            999 V2000
    2.9718   -1.1912    0.6241 c   0  0  0  0  0  0  0  0  0  0  0  0
    2.5533   -0.0423    0.0929 c   0  0  0  0  0  0  0  0  0  0  0  0
    3.2109    0.6921   -0.9528 c   0  0  0  0  0  0  0  0  0  0  0  0
    4.3906    0.2346   -1.4995 n   0  0  0  0  0  0  0  0  0  0  0  0
    4.8204    1.0839   -2.4505 c   0  0  0  0  0  0  0  0  0  0  0  0
    5.9486    0.9371   -3.1870 n   0  0  0  0  0  0  0  0  0  0  0  0
    6.1490    1.8841   -4.0359 c   0  0  0  0  0  0  0  0  0  0  0  0
    5.3312    2.9496   -4.2097 n   0  0  0  0  0  0  0  0  0  0  0  0
    4.1386    3.1860   -3.4917 c   0  0  0  0  0  0  0  0  0  0  0  0
    3.4871    4.1796   -3.7360 o   0  0  0  0  0  0  0  0  0  0  0  0
    3.9018    2.1366   -2.5407 c   0  0  0  0  0  0  0  0  0  0  0  0
    2.8700    1.8911   -1.5859 c   0  0  0  0  0  0  0  0  0  0  0  0
    1.7635    2.8102   -1.4388 c   0  0  0  0  0  0  0  0  0  0  0  0
    0.7117    2.7467   -0.6283 c   0  0  0  0  0  0  0  0  0  0  0  0
    2.4147   -1.6725    1.4083 h   0  0  0  0  0  0  0  0  0  0  0  0
    3.8693   -1.6993    0.3125 h   0  0  0  0  0  0  0  0  0  0  0  0
    1.6430    0.3982    0.4647 h   0  0  0  0  0  0  0  0  0  0  0  0
    4.8647   -0.6101   -1.2284 h   0  0  0  0  0  0  0  0  0  0  0  0
    7.0312    1.8325   -4.6581 h   0  0  0  0  0  0  0  0  0  0  0  0
    5.5587    3.6552   -4.8995 h   0  0  0  0  0  0  0  0  0  0  0  0
    1.8457    3.6566   -2.1088 h   0  0  0  0  0  0  0  0  0  0  0  0
    0.5344    1.9490    0.0702 h   0  0  0  0  0  0  0  0  0  0  0  0
   -0.0333    3.5239   -0.6438 h   0  0  0  0  0  0  0  0  0  0  0  0
  1  2  2  0  0  0  0
  2  3  1  0  0  0  0
  3  4  1  0  0  0  0
  4  5  4  0  0  0  0
  5  6  4  0  0  0  0
  6  7  2  0  0  0  0
  7  8  4  0  0  0  0
  8  9  1  0  0  0  0
  9 10  2  0  0  0  0
  5 11  4  0  0  0  0
  9 11  1  0  0  0  0
  3 12  4  0  0  0  0
 11 12  4  0  0  0  0
 12 13  1  0  0  0  0
 13 14  2  0  0  0  0
  1 15  1  0  0  0  0
  1 16  1  0  0  0  0
  2 17  1  0  0  0  0
  4 18  1  0  0  0  0
  7 19  1  0  0  0  0
  8 20  1  0  0  0  0
 13 21  1  0  0  0  0
 14 22  1  0  0  0  0
 14 23  1  0  0  0  0
M  END
