
  xtb     02032211343D
 xtb: 6.4.1 (23d549d)
 20 20  0     0  0            999 V2000
   -1.7151    3.1941    0.0975 C   0  0  0  0  0  0  0  0  0  0  0  0
   -0.9350    2.2059   -0.3179 C   0  0  0  0  0  0  0  0  0  0  0  0
   -1.2256    0.7844   -0.1188 C   0  0  0  0  0  0  0  0  0  0  0  0
   -2.5377    0.3269   -0.2070 C   0  0  0  0  0  0  0  0  0  0  0  0
   -2.8399   -1.0146   -0.0718 C   0  0  0  0  0  0  0  0  0  0  0  0
   -1.8244   -1.9290    0.1545 C   0  0  0  0  0  0  0  0  0  0  0  0
   -0.5158   -1.4959    0.2501 C   0  0  0  0  0  0  0  0  0  0  0  0
   -0.1964   -0.1457    0.1169 C   0  0  0  0  0  0  0  0  0  0  0  0
    1.1766    0.3236    0.2789 C   0  0  0  0  0  0  0  0  0  0  0  0
    2.2821   -0.3665    0.0487 C   0  0  0  0  0  0  0  0  0  0  0  0
    2.3851   -1.6091   -0.4089 F   0  0  0  0  0  0  0  0  0  0  0  0
    3.5061    0.1266    0.2366 F   0  0  0  0  0  0  0  0  0  0  0  0
   -1.4673    4.2256   -0.0856 H   0  0  0  0  0  0  0  0  0  0  0  0
   -2.6205    3.0124    0.6523 H   0  0  0  0  0  0  0  0  0  0  0  0
   -0.0211    2.4341   -0.8510 H   0  0  0  0  0  0  0  0  0  0  0  0
   -3.3256    1.0370   -0.4087 H   0  0  0  0  0  0  0  0  0  0  0  0
   -3.8642   -1.3475   -0.1480 H   0  0  0  0  0  0  0  0  0  0  0  0
   -2.0512   -2.9791    0.2604 H   0  0  0  0  0  0  0  0  0  0  0  0
    0.2649   -2.2127    0.4489 H   0  0  0  0  0  0  0  0  0  0  0  0
    1.3219    1.3353    0.6263 H   0  0  0  0  0  0  0  0  0  0  0  0
  1  2  2  0  0  0  0
  2  3  1  0  0  0  0
  3  4  4  0  0  0  0
  4  5  4  0  0  0  0
  5  6  4  0  0  0  0
  6  7  4  0  0  0  0
  3  8  4  0  0  0  0
  7  8  4  0  0  0  0
  8  9  1  0  0  0  0
  9 10  2  0  0  0  0
 10 11  1  0  0  0  0
 10 12  1  0  0  0  0
  1 13  1  0  0  0  0
  1 14  1  0  0  0  0
  2 15  1  0  0  0  0
  4 16  1  0  0  0  0
  5 17  1  0  0  0  0
  6 18  1  0  0  0  0
  7 19  1  0  0  0  0
  9 20  1  0  0  0  0
M  END
