18

C          0.92420       -0.05790        0.01500
C          2.41870        0.02400        0.00840
C          3.08050        1.25560        0.00540
C          4.48090        1.29010        0.00180
C          5.19590        2.61400       -0.00150
C          5.18300        0.06710        0.00220
N          6.60010        0.01530        0.00210
N          4.48230       -1.09840        0.00360
N          3.14890       -1.12040        0.00630
H          0.45970        0.95110        0.01960
H          0.58850       -0.60590        0.92030
H          0.57890       -0.60280       -0.88830
H          2.51030        2.17710        0.00640
H          4.48230        3.46540       -0.00180
H          5.82990        2.69610       -0.90920
H          5.83300        2.69920        0.90380
H          7.17690        0.86790        0.00520
H          7.07960       -0.89660        0.00280
