
  xtb     02012214123D
 xtb: 6.4.1 (23d549d)
 18 18  0     0  0            999 V2000
    0.9763   -0.0986    0.0145 c   0  0  0  0  0  0  0  0  0  0  0  0
    2.4666    0.0386    0.0101 c   0  0  0  0  0  0  0  0  0  0  0  0
    3.0963    1.2934    0.0067 c   0  0  0  0  0  0  0  0  0  0  0  0
    4.4695    1.3491    0.0027 c   0  0  0  0  0  0  0  0  0  0  0  0
    5.2299    2.6382   -0.0014 c   0  0  0  0  0  0  0  0  0  0  0  0
    5.1344    0.0962    0.0025 c   0  0  0  0  0  0  0  0  0  0  0  0
    6.4879   -0.0001   -0.0040 n   0  0  0  0  0  0  0  0  0  0  0  0
    4.4687   -1.0542    0.0060 n   0  0  0  0  0  0  0  0  0  0  0  0
    3.1691   -1.0773    0.0096 n   0  0  0  0  0  0  0  0  0  0  0  0
    0.4968    0.8768    0.0177 h   0  0  0  0  0  0  0  0  0  0  0  0
    0.6594   -0.6582    0.8923 h   0  0  0  0  0  0  0  0  0  0  0  0
    0.6540   -0.6550   -0.8633 h   0  0  0  0  0  0  0  0  0  0  0  0
    2.5074    2.2006    0.0071 h   0  0  0  0  0  0  0  0  0  0  0  0
    4.5431    3.4813   -0.0019 h   0  0  0  0  0  0  0  0  0  0  0  0
    5.8629    2.7068   -0.8867 h   0  0  0  0  0  0  0  0  0  0  0  0
    5.8661    2.7107    0.8813 h   0  0  0  0  0  0  0  0  0  0  0  0
    7.0744    0.8107    0.0052 h   0  0  0  0  0  0  0  0  0  0  0  0
    6.8909   -0.9180    0.0036 h   0  0  0  0  0  0  0  0  0  0  0  0
  1  2  1  0  0  0  0
  2  3  4  0  0  0  0
  3  4  2  0  0  0  0
  4  5  1  0  0  0  0
  4  6  4  0  0  0  0
  6  7  4  0  0  0  0
  6  8  4  0  0  0  0
  2  9  4  0  0  0  0
  8  9  4  0  0  0  0
  1 10  1  0  0  0  0
  1 11  1  0  0  0  0
  1 12  1  0  0  0  0
  3 13  1  0  0  0  0
  5 14  1  0  0  0  0
  5 15  1  0  0  0  0
  5 16  1  0  0  0  0
  7 17  1  0  0  0  0
  7 18  1  0  0  0  0
M  END
