
  xtb     02032210383D
 xtb: 6.4.1 (23d549d)
 46 48  0     0  0            999 V2000
    2.0613   -0.8240   -1.0862 c   0  0  0  0  0  0  0  0  0  0  0  0
    2.4997   -0.0427   -0.0026 o   0  0  0  0  0  0  0  0  0  0  0  0
    3.2459   -0.6405    0.9696 c   0  0  0  0  0  0  0  0  0  0  0  0
    3.5972   -1.9854    0.9949 c   0  0  0  0  0  0  0  0  0  0  0  0
    4.3685   -2.4825    2.0301 c   0  0  0  0  0  0  0  0  0  0  0  0
    4.7983   -1.6568    3.0629 c   0  0  0  0  0  0  0  0  0  0  0  0
    5.5740   -2.1739    4.1133 n   0  0  0  0  0  0  0  0  0  0  0  0
    6.6440   -1.4506    4.6190 c   0  0  0  0  0  0  0  0  0  0  0  0
    7.0284   -1.5761    5.9580 c   0  0  0  0  0  0  0  0  0  0  0  0
    8.0880   -0.8559    6.4612 c   0  0  0  0  0  0  0  0  0  0  0  0
    8.8096    0.0244    5.6495 c   0  0  0  0  0  0  0  0  0  0  0  0
    9.9309    0.8166    6.1157 c   0  0  0  0  0  0  0  0  0  0  0  0
   10.4658    0.8622    7.3278 c   0  0  0  0  0  0  0  0  0  0  0  0
   10.1005    0.1863    8.4138 f   0  0  0  0  0  0  0  0  0  0  0  0
   11.5070    1.6389    7.6367 f   0  0  0  0  0  0  0  0  0  0  0  0
    8.4220    0.1455    4.3112 c   0  0  0  0  0  0  0  0  0  0  0  0
    7.3659   -0.5741    3.8023 c   0  0  0  0  0  0  0  0  0  0  0  0
    5.2512   -3.4390    4.6295 c   0  0  0  0  0  0  0  0  0  0  0  0
    3.9222   -3.8134    4.7942 c   0  0  0  0  0  0  0  0  0  0  0  0
    3.5892   -5.0646    5.2815 c   0  0  0  0  0  0  0  0  0  0  0  0
    4.5882   -5.9680    5.6255 c   0  0  0  0  0  0  0  0  0  0  0  0
    4.3774   -7.2222    6.1173 o   0  0  0  0  0  0  0  0  0  0  0  0
    3.0527   -7.6593    6.2941 c   0  0  0  0  0  0  0  0  0  0  0  0
    5.9235   -5.5933    5.4632 c   0  0  0  0  0  0  0  0  0  0  0  0
    6.2513   -4.3520    4.9676 c   0  0  0  0  0  0  0  0  0  0  0  0
    4.4319   -0.3102    3.0415 c   0  0  0  0  0  0  0  0  0  0  0  0
    3.6728    0.1897    2.0080 c   0  0  0  0  0  0  0  0  0  0  0  0
    1.4999   -0.1479   -1.7292 h   0  0  0  0  0  0  0  0  0  0  0  0
    1.4054   -1.6375   -0.7582 h   0  0  0  0  0  0  0  0  0  0  0  0
    2.9036   -1.2409   -1.6484 h   0  0  0  0  0  0  0  0  0  0  0  0
    3.2852   -2.6581    0.2118 h   0  0  0  0  0  0  0  0  0  0  0  0
    4.6419   -3.5273    2.0376 h   0  0  0  0  0  0  0  0  0  0  0  0
    6.4772   -2.2407    6.6061 h   0  0  0  0  0  0  0  0  0  0  0  0
    8.3482   -0.9741    7.5000 h   0  0  0  0  0  0  0  0  0  0  0  0
   10.4014    1.4605    5.3862 h   0  0  0  0  0  0  0  0  0  0  0  0
    8.9685    0.8122    3.6600 h   0  0  0  0  0  0  0  0  0  0  0  0
    7.0935   -0.4710    2.7626 h   0  0  0  0  0  0  0  0  0  0  0  0
    3.1385   -3.1163    4.5363 h   0  0  0  0  0  0  0  0  0  0  0  0
    2.5465   -5.3161    5.3945 h   0  0  0  0  0  0  0  0  0  0  0  0
    3.1263   -8.6735    6.6835 h   0  0  0  0  0  0  0  0  0  0  0  0
    2.5042   -7.6756    5.3464 h   0  0  0  0  0  0  0  0  0  0  0  0
    2.5144   -7.0345    7.0146 h   0  0  0  0  0  0  0  0  0  0  0  0
    6.6903   -6.3045    5.7264 h   0  0  0  0  0  0  0  0  0  0  0  0
    7.2878   -4.0803    4.8349 h   0  0  0  0  0  0  0  0  0  0  0  0
    4.7480    0.3401    3.8433 h   0  0  0  0  0  0  0  0  0  0  0  0
    3.3867    1.2290    1.9837 h   0  0  0  0  0  0  0  0  0  0  0  0
  1  2  1  0  0  0  0
  2  3  1  0  0  0  0
  3  4  4  0  0  0  0
  4  5  4  0  0  0  0
  5  6  4  0  0  0  0
  6  7  1  0  0  0  0
  7  8  1  0  0  0  0
  8  9  4  0  0  0  0
  9 10  4  0  0  0  0
 10 11  4  0  0  0  0
 11 12  1  0  0  0  0
 12 13  2  0  0  0  0
 13 14  1  0  0  0  0
 13 15  1  0  0  0  0
 11 16  4  0  0  0  0
  8 17  4  0  0  0  0
 16 17  4  0  0  0  0
  7 18  1  0  0  0  0
 18 19  4  0  0  0  0
 19 20  4  0  0  0  0
 20 21  4  0  0  0  0
 21 22  1  0  0  0  0
 22 23  1  0  0  0  0
 21 24  4  0  0  0  0
 18 25  4  0  0  0  0
 24 25  4  0  0  0  0
  6 26  4  0  0  0  0
  3 27  4  0  0  0  0
 26 27  4  0  0  0  0
  1 28  1  0  0  0  0
  1 29  1  0  0  0  0
  1 30  1  0  0  0  0
  4 31  1  0  0  0  0
  5 32  1  0  0  0  0
  9 33  1  0  0  0  0
 10 34  1  0  0  0  0
 12 35  1  0  0  0  0
 16 36  1  0  0  0  0
 17 37  1  0  0  0  0
 19 38  1  0  0  0  0
 20 39  1  0  0  0  0
 23 40  1  0  0  0  0
 23 41  1  0  0  0  0
 23 42  1  0  0  0  0
 24 43  1  0  0  0  0
 25 44  1  0  0  0  0
 26 45  1  0  0  0  0
 27 46  1  0  0  0  0
M  END
