
  xtb     02032211353D
 xtb: 6.4.1 (23d549d)
 24 25  0     0  0            999 V2000
    3.2060    1.7633   -1.2637 C   0  0  0  0  0  0  0  0  0  0  0  0
    2.0052    1.2637   -0.9933 C   0  0  0  0  0  0  0  0  0  0  0  0
    1.7548    0.0237   -0.2873 C   0  0  0  0  0  0  0  0  0  0  0  0
    2.7345   -0.9710   -0.0125 C   0  0  0  0  0  0  0  0  0  0  0  0
    2.2335   -2.0555    0.6210 C   0  0  0  0  0  0  0  0  0  0  0  0
    0.5438   -1.9208    0.9189 S   0  0  0  0  0  0  0  0  0  0  0  0
    0.5023   -0.3586    0.1495 C   0  0  0  0  0  0  0  0  0  0  0  0
   -0.7271    0.3884    0.1219 C   0  0  0  0  0  0  0  0  0  0  0  0
   -0.7471    2.0335    0.7024 S   0  0  0  0  0  0  0  0  0  0  0  0
   -2.4515    2.1241    0.5019 C   0  0  0  0  0  0  0  0  0  0  0  0
   -2.9729    0.9667    0.0318 C   0  0  0  0  0  0  0  0  0  0  0  0
   -1.9969   -0.0393   -0.2018 C   0  0  0  0  0  0  0  0  0  0  0  0
   -2.3494   -1.3246   -0.7838 C   0  0  0  0  0  0  0  0  0  0  0  0
   -1.5824   -2.0365   -1.5987 C   0  0  0  0  0  0  0  0  0  0  0  0
    3.3174    2.6891   -1.8007 H   0  0  0  0  0  0  0  0  0  0  0  0
    4.1171    1.2802   -0.9549 H   0  0  0  0  0  0  0  0  0  0  0  0
    1.1217    1.8019   -1.3112 H   0  0  0  0  0  0  0  0  0  0  0  0
    3.7672   -0.8780   -0.2942 H   0  0  0  0  0  0  0  0  0  0  0  0
    2.7496   -2.9405    0.9366 H   0  0  0  0  0  0  0  0  0  0  0  0
   -2.9599    3.0360    0.7446 H   0  0  0  0  0  0  0  0  0  0  0  0
   -4.0200    0.8218   -0.1680 H   0  0  0  0  0  0  0  0  0  0  0  0
   -3.3503   -1.6653   -0.5496 H   0  0  0  0  0  0  0  0  0  0  0  0
   -0.5986   -1.7087   -1.8897 H   0  0  0  0  0  0  0  0  0  0  0  0
   -1.9179   -2.9717   -2.0123 H   0  0  0  0  0  0  0  0  0  0  0  0
  1  2  2  0  0  0  0
  2  3  1  0  0  0  0
  3  4  4  0  0  0  0
  4  5  2  0  0  0  0
  5  6  1  0  0  0  0
  3  7  4  0  0  0  0
  6  7  1  0  0  0  0
  7  8  1  0  0  0  0
  8  9  1  0  0  0  0
  9 10  1  0  0  0  0
 10 11  2  0  0  0  0
  8 12  4  0  0  0  0
 11 12  4  0  0  0  0
 12 13  1  0  0  0  0
 13 14  2  0  0  0  0
  1 15  1  0  0  0  0
  1 16  1  0  0  0  0
  2 17  1  0  0  0  0
  4 18  1  0  0  0  0
  5 19  1  0  0  0  0
 10 20  1  0  0  0  0
 11 21  1  0  0  0  0
 13 22  1  0  0  0  0
 14 23  1  0  0  0  0
 14 24  1  0  0  0  0
M  END
