
  xtb     02032211343D
 xtb: 6.4.1 (23d549d)
 19 19  0     0  0            999 V2000
    4.7424    0.4013   -0.0215 C   0  0  0  0  0  0  0  0  0  0  0  0
    3.7584   -0.4905    0.0060 C   0  0  0  0  0  0  0  0  0  0  0  0
    2.3329   -0.2034    0.0061 C   0  0  0  0  0  0  0  0  0  0  0  0
    1.4097   -1.2529    0.0149 C   0  0  0  0  0  0  0  0  0  0  0  0
    0.0551   -0.9886    0.0129 C   0  0  0  0  0  0  0  0  0  0  0  0
   -0.3658    0.3439    0.0021 C   0  0  0  0  0  0  0  0  0  0  0  0
   -1.7554    0.7729   -0.0033 C   0  0  0  0  0  0  0  0  0  0  0  0
   -2.8452    0.0207   -0.0025 C   0  0  0  0  0  0  0  0  0  0  0  0
   -2.9165   -1.3053    0.0041 F   0  0  0  0  0  0  0  0  0  0  0  0
   -4.0786    0.5161   -0.0085 F   0  0  0  0  0  0  0  0  0  0  0  0
    0.5103    1.3521   -0.0041 N   0  0  0  0  0  0  0  0  0  0  0  0
    1.7961    1.0900   -0.0019 C   0  0  0  0  0  0  0  0  0  0  0  0
    5.7737    0.0932   -0.0198 H   0  0  0  0  0  0  0  0  0  0  0  0
    4.5664    1.4627   -0.0478 H   0  0  0  0  0  0  0  0  0  0  0  0
    4.0028   -1.5460    0.0298 H   0  0  0  0  0  0  0  0  0  0  0  0
    1.7606   -2.2758    0.0227 H   0  0  0  0  0  0  0  0  0  0  0  0
   -0.6562   -1.7975    0.0196 H   0  0  0  0  0  0  0  0  0  0  0  0
   -1.9004    1.8427   -0.0096 H   0  0  0  0  0  0  0  0  0  0  0  0
    2.4370    1.9610   -0.0059 H   0  0  0  0  0  0  0  0  0  0  0  0
  1  2  2  0  0  0  0
  2  3  1  0  0  0  0
  3  4  4  0  0  0  0
  4  5  4  0  0  0  0
  5  6  4  0  0  0  0
  6  7  1  0  0  0  0
  7  8  2  0  0  0  0
  8  9  1  0  0  0  0
  8 10  1  0  0  0  0
  6 11  4  0  0  0  0
  3 12  4  0  0  0  0
 11 12  4  0  0  0  0
  1 13  1  0  0  0  0
  1 14  1  0  0  0  0
  2 15  1  0  0  0  0
  4 16  1  0  0  0  0
  5 17  1  0  0  0  0
  7 18  1  0  0  0  0
 12 19  1  0  0  0  0
M  END
