
 OpenBabel02012213423D

 43 46  0  0  0  0  0  0  0  0999 V2000
    1.0591   -0.0450    0.4677 C   0  0  0  0  0  0  0  0  0  0  0  0
    2.2603    0.0255   -0.2081 O   0  0  0  0  0  0  0  0  0  0  0  0
    2.9344    1.1662   -0.5080 C   0  0  0  0  0  0  0  0  0  0  0  0
    2.5446    2.4362    0.0003 C   0  0  0  0  0  0  0  0  0  0  0  0
    3.2636    3.5923   -0.3369 C   0  0  0  0  0  0  0  0  0  0  0  0
    4.0533    1.0692   -1.3594 C   0  0  0  0  0  0  0  0  0  0  0  0
    4.7437    2.2393   -1.7118 C   0  0  0  0  0  0  0  0  0  0  0  0
    4.3525    3.4578   -1.1922 C   0  0  0  0  0  0  0  0  0  0  0  0
    5.2159    4.3983   -1.6969 C   0  0  0  0  0  0  0  0  0  0  0  0
    5.2677    5.7786   -1.5156 C   0  0  0  0  0  0  0  0  0  0  0  0
    6.2554    6.4965   -2.2084 C   0  0  0  0  0  0  0  0  0  0  0  0
    7.1597    5.8381   -3.0697 C   0  0  0  0  0  0  0  0  0  0  0  0
    8.0793    6.5889   -3.7328 O   0  0  0  0  0  0  0  0  0  0  0  0
    9.0304    6.1043   -4.6082 C   0  0  0  0  0  0  0  0  0  0  0  0
    7.0801    4.4330   -3.2269 C   0  0  0  0  0  0  0  0  0  0  0  0
    6.1014    3.7253   -2.5113 C   0  0  0  0  0  0  0  0  0  0  0  0
    5.8292    2.3856   -2.5276 N   0  0  0  0  0  0  0  0  0  0  0  0
    6.5260    1.3657   -3.2896 C   0  0  0  0  0  0  0  0  0  0  0  0
    7.9268    1.4037   -3.4386 C   0  0  0  0  0  0  0  0  0  0  0  0
    8.5935    0.4509   -4.2121 C   0  0  0  0  0  0  0  0  0  0  0  0
    7.8750   -0.5651   -4.8544 C   0  0  0  0  0  0  0  0  0  0  0  0
    8.5756   -1.5783   -5.7100 C   0  0  0  0  0  0  0  0  0  0  0  0
    6.4846   -0.6252   -4.6992 C   0  0  0  0  0  0  0  0  0  0  0  0
    5.8170    0.3282   -3.9245 C   0  0  0  0  0  0  0  0  0  0  0  0
    0.7562   -1.1079    0.5582 H   0  0  0  0  0  0  0  0  0  0  0  0
    0.2739    0.4976   -0.1023 H   0  0  0  0  0  0  0  0  0  0  0  0
    1.1563    0.3839    1.4869 H   0  0  0  0  0  0  0  0  0  0  0  0
    1.6913    2.5367    0.6568 H   0  0  0  0  0  0  0  0  0  0  0  0
    2.9703    4.5587    0.0528 H   0  0  0  0  0  0  0  0  0  0  0  0
    4.3500    0.0973   -1.7215 H   0  0  0  0  0  0  0  0  0  0  0  0
    4.5639    6.2888   -0.8713 H   0  0  0  0  0  0  0  0  0  0  0  0
    6.3112    7.5709   -2.0895 H   0  0  0  0  0  0  0  0  0  0  0  0
    9.6342    6.9500   -4.9956 H   0  0  0  0  0  0  0  0  0  0  0  0
    8.5406    5.5979   -5.4677 H   0  0  0  0  0  0  0  0  0  0  0  0
    9.7073    5.3952   -4.0852 H   0  0  0  0  0  0  0  0  0  0  0  0
    7.7489    3.9329   -3.9034 H   0  0  0  0  0  0  0  0  0  0  0  0
    8.5193    2.1612   -2.9464 H   0  0  0  0  0  0  0  0  0  0  0  0
    9.6703    0.5113   -4.3116 H   0  0  0  0  0  0  0  0  0  0  0  0
    9.6705   -1.3933   -5.7464 H   0  0  0  0  0  0  0  0  0  0  0  0
    8.1792   -1.5226   -6.7462 H   0  0  0  0  0  0  0  0  0  0  0  0
    8.4011   -2.5973   -5.3072 H   0  0  0  0  0  0  0  0  0  0  0  0
    5.9143   -1.4028   -5.1920 H   0  0  0  0  0  0  0  0  0  0  0  0
    4.7406    0.2692   -3.8621 H   0  0  0  0  0  0  0  0  0  0  0  0
  1  2  1  0  0  0  0
  1 25  1  0  0  0  0
  1 26  1  0  0  0  0
  1 27  1  0  0  0  0
  2  3  1  0  0  0  0
  3  4  2  0  0  0  0
  3  6  1  0  0  0  0
  4  5  1  0  0  0  0
  4 28  1  0  0  0  0
  5  8  2  0  0  0  0
  5 29  1  0  0  0  0
  6  7  2  0  0  0  0
  6 30  1  0  0  0  0
  7  8  1  0  0  0  0
  7 17  1  0  0  0  0
  8  9  1  0  0  0  0
  9 10  2  0  0  0  0
  9 16  1  0  0  0  0
 10 11  1  0  0  0  0
 10 31  1  0  0  0  0
 11 12  2  0  0  0  0
 11 32  1  0  0  0  0
 12 13  1  0  0  0  0
 12 15  1  0  0  0  0
 13 14  1  0  0  0  0
 14 33  1  0  0  0  0
 14 34  1  0  0  0  0
 14 35  1  0  0  0  0
 15 16  2  0  0  0  0
 15 36  1  0  0  0  0
 16 17  1  0  0  0  0
 17 18  1  0  0  0  0
 18 19  1  0  0  0  0
 18 24  2  0  0  0  0
 19 20  2  0  0  0  0
 19 37  1  0  0  0  0
 20 21  1  0  0  0  0
 20 38  1  0  0  0  0
 21 22  1  0  0  0  0
 21 23  2  0  0  0  0
 22 39  1  0  0  0  0
 22 40  1  0  0  0  0
 22 41  1  0  0  0  0
 23 24  1  0  0  0  0
 23 42  1  0  0  0  0
 24 43  1  0  0  0  0
M  END
