
  xtb     02032211353D
 xtb: 6.4.1 (23d549d)
 24 24  0     0  0            999 V2000
    3.9387    0.6078    0.4055 C   0  0  0  0  0  0  0  0  0  0  0  0
    3.1948   -0.3476   -0.1392 C   0  0  0  0  0  0  0  0  0  0  0  0
    1.7513   -0.4036   -0.1410 C   0  0  0  0  0  0  0  0  0  0  0  0
    1.1319   -1.6008   -0.2973 N   0  0  0  0  0  0  0  0  0  0  0  0
   -0.1966   -1.5276   -0.1977 N   0  0  0  0  0  0  0  0  0  0  0  0
   -0.4632   -0.2489    0.0190 C   0  0  0  0  0  0  0  0  0  0  0  0
   -1.7295    0.2723    0.1571 N   0  0  0  0  0  0  0  0  0  0  0  0
   -2.9584   -0.3362    0.1289 C   0  0  0  0  0  0  0  0  0  0  0  0
   -2.9651   -1.8195   -0.0870 C   0  0  0  0  0  0  0  0  0  0  0  0
   -3.9526    0.3403    0.2774 O   0  0  0  0  0  0  0  0  0  0  0  0
    0.7313    0.5268    0.0619 C   0  0  0  0  0  0  0  0  0  0  0  0
    0.7694    1.9689    0.2180 C   0  0  0  0  0  0  0  0  0  0  0  0
    1.6020    2.7868   -0.4117 C   0  0  0  0  0  0  0  0  0  0  0  0
    5.0133    0.5570    0.3854 H   0  0  0  0  0  0  0  0  0  0  0  0
    3.5009    1.4609    0.8925 H   0  0  0  0  0  0  0  0  0  0  0  0
    3.6726   -1.2075   -0.5953 H   0  0  0  0  0  0  0  0  0  0  0  0
    1.5684   -2.4987   -0.4296 H   0  0  0  0  0  0  0  0  0  0  0  0
   -1.7674    1.2751    0.2960 H   0  0  0  0  0  0  0  0  0  0  0  0
   -2.4841   -2.0558   -1.0323 H   0  0  0  0  0  0  0  0  0  0  0  0
   -3.9917   -2.1741   -0.0866 H   0  0  0  0  0  0  0  0  0  0  0  0
   -2.3959   -2.3092    0.6984 H   0  0  0  0  0  0  0  0  0  0  0  0
    0.0147    2.3808    0.8795 H   0  0  0  0  0  0  0  0  0  0  0  0
    2.3461    2.4205   -1.0983 H   0  0  0  0  0  0  0  0  0  0  0  0
    1.5617    3.8524   -0.2655 H   0  0  0  0  0  0  0  0  0  0  0  0
  1  2  2  0  0  0  0
  2  3  1  0  0  0  0
  3  4  4  0  0  0  0
  4  5  1  0  0  0  0
  5  6  4  0  0  0  0
  6  7  1  0  0  0  0
  7  8  1  0  0  0  0
  8  9  1  0  0  0  0
  8 10  2  0  0  0  0
  3 11  4  0  0  0  0
  6 11  4  0  0  0  0
 11 12  1  0  0  0  0
 12 13  2  0  0  0  0
  1 14  1  0  0  0  0
  1 15  1  0  0  0  0
  2 16  1  0  0  0  0
  4 17  1  0  0  0  0
  7 18  1  0  0  0  0
  9 19  1  0  0  0  0
  9 20  1  0  0  0  0
  9 21  1  0  0  0  0
 12 22  1  0  0  0  0
 13 23  1  0  0  0  0
 13 24  1  0  0  0  0
M  END
