
  xtb     02032211343D
 xtb: 6.4.1 (23d549d)
 17 17  0     0  0            999 V2000
   -1.9247    2.5274   -0.3592 C   0  0  0  0  0  0  0  0  0  0  0  0
   -2.3933    1.3942    0.1486 C   0  0  0  0  0  0  0  0  0  0  0  0
   -1.7369    0.1044    0.0955 C   0  0  0  0  0  0  0  0  0  0  0  0
   -2.4067   -1.1499    0.0500 C   0  0  0  0  0  0  0  0  0  0  0  0
   -1.4384   -2.1005   -0.0213 C   0  0  0  0  0  0  0  0  0  0  0  0
   -0.2198   -1.5440   -0.0082 O   0  0  0  0  0  0  0  0  0  0  0  0
   -0.3854   -0.2032    0.0642 C   0  0  0  0  0  0  0  0  0  0  0  0
    0.7636    0.6503    0.1762 C   0  0  0  0  0  0  0  0  0  0  0  0
    2.0252    0.2583    0.0331 C   0  0  0  0  0  0  0  0  0  0  0  0
    2.4527   -0.9569   -0.2736 F   0  0  0  0  0  0  0  0  0  0  0  0
    3.0665    1.0761    0.1709 F   0  0  0  0  0  0  0  0  0  0  0  0
   -2.4823    3.4451   -0.2855 H   0  0  0  0  0  0  0  0  0  0  0  0
   -0.9891    2.5779   -0.8889 H   0  0  0  0  0  0  0  0  0  0  0  0
   -3.3692    1.3797    0.6176 H   0  0  0  0  0  0  0  0  0  0  0  0
   -3.4661   -1.3047    0.0544 H   0  0  0  0  0  0  0  0  0  0  0  0
   -1.4866   -3.1698   -0.0804 H   0  0  0  0  0  0  0  0  0  0  0  0
    0.5853    1.6844    0.4195 H   0  0  0  0  0  0  0  0  0  0  0  0
  1  2  2  0  0  0  0
  2  3  1  0  0  0  0
  3  4  4  0  0  0  0
  4  5  2  0  0  0  0
  5  6  1  0  0  0  0
  3  7  4  0  0  0  0
  6  7  1  0  0  0  0
  7  8  1  0  0  0  0
  8  9  2  0  0  0  0
  9 10  1  0  0  0  0
  9 11  1  0  0  0  0
  1 12  1  0  0  0  0
  1 13  1  0  0  0  0
  2 14  1  0  0  0  0
  4 15  1  0  0  0  0
  5 16  1  0  0  0  0
  8 17  1  0  0  0  0
M  END
