
  xtb     02032211353D
 xtb: 6.4.1 (23d549d)
 26 26  0     0  0            999 V2000
   -2.9806   -3.2145    0.1741 C   0  0  0  0  0  0  0  0  0  0  0  0
   -1.7330   -2.8122   -0.0343 C   0  0  0  0  0  0  0  0  0  0  0  0
   -1.2542   -1.4336   -0.0506 C   0  0  0  0  0  0  0  0  0  0  0  0
   -2.1106   -0.3337   -0.0497 C   0  0  0  0  0  0  0  0  0  0  0  0
   -1.6346    0.9761   -0.0736 C   0  0  0  0  0  0  0  0  0  0  0  0
   -2.5157    2.1397   -0.0809 C   0  0  0  0  0  0  0  0  0  0  0  0
   -3.8234    2.1426    0.1458 C   0  0  0  0  0  0  0  0  0  0  0  0
   -0.2522    1.1786   -0.1005 C   0  0  0  0  0  0  0  0  0  0  0  0
    0.5957    0.0932   -0.0981 C   0  0  0  0  0  0  0  0  0  0  0  0
    2.3668    0.3731   -0.0879 S   0  0  0  0  0  0  0  0  0  0  0  0
    2.7540    0.4507    1.6883 C   0  0  0  0  0  0  0  0  0  0  0  0
    3.0299   -0.7768   -0.6406 O   0  0  0  0  0  0  0  0  0  0  0  0
    2.6448    1.6612   -0.6631 O   0  0  0  0  0  0  0  0  0  0  0  0
    0.1235   -1.2005   -0.0768 C   0  0  0  0  0  0  0  0  0  0  0  0
   -3.2374   -4.2596    0.1713 H   0  0  0  0  0  0  0  0  0  0  0  0
   -3.7921   -2.5323    0.3614 H   0  0  0  0  0  0  0  0  0  0  0  0
   -0.9613   -3.5533   -0.1992 H   0  0  0  0  0  0  0  0  0  0  0  0
   -3.1751   -0.5016   -0.0575 H   0  0  0  0  0  0  0  0  0  0  0  0
   -2.0132    3.0777   -0.2800 H   0  0  0  0  0  0  0  0  0  0  0  0
   -4.3805    1.2487    0.3686 H   0  0  0  0  0  0  0  0  0  0  0  0
   -4.3915    3.0564    0.1235 H   0  0  0  0  0  0  0  0  0  0  0  0
    0.1714    2.1703   -0.1414 H   0  0  0  0  0  0  0  0  0  0  0  0
    2.4799   -0.4969    2.1329 H   0  0  0  0  0  0  0  0  0  0  0  0
    2.1907    1.2682    2.1188 H   0  0  0  0  0  0  0  0  0  0  0  0
    3.8178    0.6258    1.7878 H   0  0  0  0  0  0  0  0  0  0  0  0
    0.8323   -2.0139   -0.0999 H   0  0  0  0  0  0  0  0  0  0  0  0
  1  2  2  0  0  0  0
  2  3  1  0  0  0  0
  3  4  4  0  0  0  0
  4  5  4  0  0  0  0
  5  6  1  0  0  0  0
  6  7  2  0  0  0  0
  5  8  4  0  0  0  0
  8  9  4  0  0  0  0
  9 10  1  0  0  0  0
 10 11  1  0  0  0  0
 10 12  2  0  0  0  0
 10 13  2  0  0  0  0
  3 14  4  0  0  0  0
  9 14  4  0  0  0  0
  1 15  1  0  0  0  0
  1 16  1  0  0  0  0
  2 17  1  0  0  0  0
  4 18  1  0  0  0  0
  6 19  1  0  0  0  0
  7 20  1  0  0  0  0
  7 21  1  0  0  0  0
  8 22  1  0  0  0  0
 11 23  1  0  0  0  0
 11 24  1  0  0  0  0
 11 25  1  0  0  0  0
 14 26  1  0  0  0  0
M  END
