22

C          1.61944       -0.19825        0.99702
C          2.29000       -0.05830       -0.15190
C          2.97510        1.19880       -0.52830
C          2.48540        2.42450       -0.07340
C          3.13070        3.62620       -0.42550
C          2.57080        4.94270        0.08730
F          1.44373        4.75885        0.87054
F          3.52278        5.58591        0.85876
F          2.21942        5.74904       -0.98075
C          4.29200        3.57080       -1.25100
C          5.01840        4.82240       -1.65030
C          6.02774        5.38319       -0.96780
C          4.73840        2.30190       -1.67920
N          4.08090        1.17340       -1.31430
H          1.13371       -1.14103        1.22727
H          1.54562        0.61167        1.71569
H          2.32972       -0.90553       -0.83153
H          1.60200        2.43220        0.55320
H          4.72624        5.34165       -2.55417
H          6.42298        4.98183       -0.04554
H          6.48355        6.29352       -1.34488
H          5.60610        2.18420       -2.30620
22

C          2.61128       -0.75464        0.94407
C          2.29000       -0.05830       -0.15190
C          2.97510        1.19880       -0.52830
C          2.48540        2.42450       -0.07340
C          3.13070        3.62620       -0.42550
C          2.57080        4.94270        0.08730
F          1.44373        4.75885        0.87054
F          3.52278        5.58591        0.85876
F          2.21942        5.74904       -0.98075
C          4.29200        3.57080       -1.25100
C          5.01840        4.82240       -1.65030
C          4.76740        5.54554       -2.75173
C          4.73840        2.30190       -1.67920
N          4.08090        1.17340       -1.31430
H          2.07888       -1.67127        1.17670
H          3.39832       -0.42783        1.61613
H          1.49335       -0.43645       -0.78722
H          1.60200        2.43220        0.55320
H          5.81775        5.19653       -1.02338
H          4.00421        5.29197       -3.47360
H          5.35571        6.43654       -2.94835
H          5.60610        2.18420       -2.30620
22

C          1.31039       -0.59432       -0.88831
C          2.29000       -0.05830       -0.15190
C          2.97510        1.19880       -0.52830
C          2.48540        2.42450       -0.07340
C          3.13070        3.62620       -0.42550
C          2.57080        4.94270        0.08730
F          1.44373        4.75885        0.87054
F          3.52278        5.58591        0.85876
F          2.21942        5.74904       -0.98075
C          4.29200        3.57080       -1.25100
C          5.01840        4.82240       -1.65030
C          6.02774        5.38319       -0.96780
C          4.73840        2.30190       -1.67920
N          4.08090        1.17340       -1.31430
H          0.83902       -1.51838       -0.56936
H          0.96731       -0.12766       -1.80615
H          2.58979       -0.57127        0.75819
H          1.60200        2.43220        0.55320
H          4.72624        5.34165       -2.55417
H          6.42298        4.98183       -0.04554
H          6.48355        6.29352       -1.34488
H          5.60610        2.18420       -2.30620
22

C          0.97594       -0.11894        0.09061
C          2.29000       -0.05830       -0.15190
C          2.97510        1.19880       -0.52830
C          2.48540        2.42450       -0.07340
C          3.13070        3.62620       -0.42550
C          2.57080        4.94270        0.08730
F          1.44373        4.75885        0.87054
F          3.52278        5.58591        0.85876
F          2.21942        5.74904       -0.98075
C          4.29200        3.57080       -1.25100
C          5.01840        4.82240       -1.65030
C          6.02774        5.38319       -0.96780
C          4.73840        2.30190       -1.67920
N          4.08090        1.17340       -1.31430
H          0.52040       -1.06540        0.36356
H          0.34309        0.76015        0.02281
H          2.87209       -0.97222       -0.06707
H          1.60200        2.43220        0.55320
H          4.72624        5.34165       -2.55417
H          6.42298        4.98183       -0.04554
H          6.48355        6.29352       -1.34488
H          5.60610        2.18420       -2.30620
22

C          2.61128       -0.75464        0.94407
C          2.29000       -0.05830       -0.15190
C          2.97510        1.19880       -0.52830
C          2.48540        2.42450       -0.07340
C          3.13070        3.62620       -0.42550
C          2.57080        4.94270        0.08730
F          1.44373        4.75885        0.87054
F          3.52278        5.58591        0.85876
F          2.21942        5.74904       -0.98075
C          4.29200        3.57080       -1.25100
C          5.01840        4.82240       -1.65030
C          6.02774        5.38319       -0.96780
C          4.73840        2.30190       -1.67920
N          4.08090        1.17340       -1.31430
H          2.07888       -1.67127        1.17670
H          3.39832       -0.42783        1.61613
H          1.49335       -0.43645       -0.78722
H          1.60200        2.43220        0.55320
H          4.72624        5.34165       -2.55417
H          6.42298        4.98183       -0.04554
H          6.48355        6.29352       -1.34488
H          5.60610        2.18420       -2.30620
22

C          1.31039       -0.59432       -0.88831
C          2.29000       -0.05830       -0.15190
C          2.97510        1.19880       -0.52830
C          2.48540        2.42450       -0.07340
C          3.13070        3.62620       -0.42550
C          2.57080        4.94270        0.08730
F          1.44373        4.75885        0.87054
F          3.52278        5.58591        0.85876
F          2.21942        5.74904       -0.98075
C          4.29200        3.57080       -1.25100
C          5.01840        4.82240       -1.65030
C          4.76740        5.54554       -2.75173
C          4.73840        2.30190       -1.67920
N          4.08090        1.17340       -1.31430
H          0.83902       -1.51838       -0.56936
H          0.96731       -0.12766       -1.80615
H          2.58979       -0.57127        0.75819
H          1.60200        2.43220        0.55320
H          5.81775        5.19653       -1.02338
H          4.00421        5.29197       -3.47360
H          5.35571        6.43654       -2.94835
H          5.60610        2.18420       -2.30620
22

C          2.93868       -1.21998       -0.01418
C          2.29000       -0.05830       -0.15190
C          2.97510        1.19880       -0.52830
C          2.48540        2.42450       -0.07340
C          3.13070        3.62620       -0.42550
C          2.57080        4.94270        0.08730
F          1.44373        4.75885        0.87054
F          3.52278        5.58591        0.85876
F          2.21942        5.74904       -0.98075
C          4.29200        3.57080       -1.25100
C          5.01840        4.82240       -1.65030
C          6.33468        4.90994       -1.89283
C          4.73840        2.30190       -1.67920
N          4.08090        1.17340       -1.31430
H          2.39077       -2.11469        0.26347
H          4.00937       -1.29690       -0.17421
H          1.21701       -0.04397        0.02062
H          1.60200        2.43220        0.55320
H          4.46599        5.74745       -1.75562
H          7.01378        4.07232       -1.82160
H          6.76101        5.86799       -2.17395
H          5.60610        2.18420       -2.30620
22

C          2.93868       -1.21998       -0.01418
C          2.29000       -0.05830       -0.15190
C          2.97510        1.19880       -0.52830
C          2.48540        2.42450       -0.07340
C          3.13070        3.62620       -0.42550
C          2.57080        4.94270        0.08730
F          1.44373        4.75885        0.87054
F          3.52278        5.58591        0.85876
F          2.21942        5.74904       -0.98075
C          4.29200        3.57080       -1.25100
C          5.01840        4.82240       -1.65030
C          5.69778        4.99198       -2.79431
C          4.73840        2.30190       -1.67920
N          4.08090        1.17340       -1.31430
H          2.39077       -2.11469        0.26347
H          4.00937       -1.29690       -0.17421
H          1.21701       -0.04397        0.02062
H          1.60200        2.43220        0.55320
H          5.01757        5.67412       -0.98206
H          5.79150        4.22904       -3.55392
H          6.19107        5.94027       -2.98423
H          5.60610        2.18420       -2.30620
22

C          2.61128       -0.75464        0.94407
C          2.29000       -0.05830       -0.15190
C          2.97510        1.19880       -0.52830
C          2.48540        2.42450       -0.07340
C          3.13070        3.62620       -0.42550
C          2.57080        4.94270        0.08730
F          1.44373        4.75885        0.87054
F          3.52278        5.58591        0.85876
F          2.21942        5.74904       -0.98075
C          4.29200        3.57080       -1.25100
C          5.01840        4.82240       -1.65030
C          4.45385        6.02900       -1.80675
C          4.73840        2.30190       -1.67920
N          4.08090        1.17340       -1.31430
H          2.07888       -1.67127        1.17670
H          3.39832       -0.42783        1.61613
H          1.49335       -0.43645       -0.78722
H          1.60200        2.43220        0.55320
H          6.08361        4.78198       -1.83915
H          3.40066        6.22110       -1.65924
H          5.07227        6.87124       -2.10140
H          5.60610        2.18420       -2.30620
22

C          1.31039       -0.59432       -0.88831
C          2.29000       -0.05830       -0.15190
C          2.97510        1.19880       -0.52830
C          2.48540        2.42450       -0.07340
C          3.13070        3.62620       -0.42550
C          2.57080        4.94270        0.08730
F          1.44373        4.75885        0.87054
F          3.52278        5.58591        0.85876
F          2.21942        5.74904       -0.98075
C          4.29200        3.57080       -1.25100
C          5.01840        4.82240       -1.65030
C          5.07730        5.94869       -0.92430
C          4.73840        2.30190       -1.67920
N          4.08090        1.17340       -1.31430
H          0.83902       -1.51838       -0.56936
H          0.96731       -0.12766       -1.80615
H          2.58979       -0.57127        0.75819
H          1.60200        2.43220        0.55320
H          5.54367        4.85376       -2.59638
H          4.59714        6.06768        0.03651
H          5.63018        6.80049       -1.30822
H          5.60610        2.18420       -2.30620
