
  xtb     02032211343D
 xtb: 6.4.1 (23d549d)
 20 20  0     0  0            999 V2000
    0.5652   -3.1830    0.0893 C   0  0  0  0  0  0  0  0  0  0  0  0
    0.4442   -1.9574    0.5794 C   0  0  0  0  0  0  0  0  0  0  0  0
   -0.6236   -1.0213    0.2346 C   0  0  0  0  0  0  0  0  0  0  0  0
   -1.9110   -1.4895   -0.0282 C   0  0  0  0  0  0  0  0  0  0  0  0
   -2.9590   -0.6247   -0.2740 C   0  0  0  0  0  0  0  0  0  0  0  0
   -2.7513    0.7448   -0.2464 C   0  0  0  0  0  0  0  0  0  0  0  0
   -1.4793    1.2097    0.0133 C   0  0  0  0  0  0  0  0  0  0  0  0
   -1.2709    2.5444    0.0337 F   0  0  0  0  0  0  0  0  0  0  0  0
   -0.3928    0.3645    0.2378 C   0  0  0  0  0  0  0  0  0  0  0  0
    0.9159    0.9769    0.4607 C   0  0  0  0  0  0  0  0  0  0  0  0
    2.0611    0.5732   -0.0627 C   0  0  0  0  0  0  0  0  0  0  0  0
    2.2522   -0.4486   -0.8870 F   0  0  0  0  0  0  0  0  0  0  0  0
    3.2242    1.1798    0.1565 F   0  0  0  0  0  0  0  0  0  0  0  0
    1.3664   -3.8334    0.3934 H   0  0  0  0  0  0  0  0  0  0  0  0
   -0.1103   -3.5720   -0.6537 H   0  0  0  0  0  0  0  0  0  0  0  0
    1.1718   -1.5906    1.2926 H   0  0  0  0  0  0  0  0  0  0  0  0
   -2.0888   -2.5534   -0.0128 H   0  0  0  0  0  0  0  0  0  0  0  0
   -3.9457   -1.0125   -0.4746 H   0  0  0  0  0  0  0  0  0  0  0  0
   -3.5509    1.4466   -0.4204 H   0  0  0  0  0  0  0  0  0  0  0  0
    0.9427    1.8853    1.0453 H   0  0  0  0  0  0  0  0  0  0  0  0
  1  2  2  0  0  0  0
  2  3  1  0  0  0  0
  3  4  4  0  0  0  0
  4  5  4  0  0  0  0
  5  6  4  0  0  0  0
  6  7  4  0  0  0  0
  7  8  1  0  0  0  0
  3  9  4  0  0  0  0
  7  9  4  0  0  0  0
  9 10  1  0  0  0  0
 10 11  2  0  0  0  0
 11 12  1  0  0  0  0
 11 13  1  0  0  0  0
  1 14  1  0  0  0  0
  1 15  1  0  0  0  0
  2 16  1  0  0  0  0
  4 17  1  0  0  0  0
  5 18  1  0  0  0  0
  6 19  1  0  0  0  0
 10 20  1  0  0  0  0
M  END
