23

C          1.98363        0.55628        1.10116
C          2.31410       -0.12180       -0.00700
C          2.99550       -1.42410       -0.02580
C          2.30770       -2.63660       -0.01970
C          3.00350       -3.85150       -0.01910
C          4.40930       -3.89650        0.00450
C          5.10210       -5.19680       -0.05400
C          5.50684       -5.84681       -1.15236
F          5.30358       -5.35118       -2.39019
F          6.13518       -7.03404       -1.01142
C          5.11410       -2.67450        0.01020
C          6.61650       -2.55650        0.03250
C          4.39420       -1.45790        0.00230
H          1.47055        1.50855        1.02755
H          2.19425        0.18543        2.09902
H          2.04739        0.29351       -0.97517
H          1.22100       -2.66110       -0.01410
H          2.41690       -4.76710       -0.04050
H          5.31290       -5.67465        0.89619
H          7.13470       -3.51660        0.06410
H          6.93020       -1.99550        0.91970
H          6.95920       -2.02530       -0.86170
H          4.94820       -0.52030        0.00750
23

C          1.94441        0.56748       -1.09569
C          2.31410       -0.12180       -0.00700
C          2.99550       -1.42410       -0.02580
C          2.30770       -2.63660       -0.01970
C          3.00350       -3.85150       -0.01910
C          4.40930       -3.89650        0.00450
C          5.10210       -5.19680       -0.05400
C          5.46728       -5.96386        0.98089
F          5.22992       -5.59953        2.25764
F          6.09283       -7.13512        0.73386
C          5.11410       -2.67450        0.01020
C          6.61650       -2.55650        0.03250
C          4.39420       -1.45790        0.00230
H          1.45469        1.52944       -0.99428
H          2.12805        0.21147       -2.10423
H          2.12589        0.30645        0.97389
H          1.22100       -2.66110       -0.01410
H          2.41690       -4.76710       -0.04050
H          5.33438       -5.57597       -1.04290
H          7.13470       -3.51660        0.06410
H          6.93020       -1.99550        0.91970
H          6.95920       -2.02530       -0.86170
H          4.94820       -0.52030        0.00750
23

C          1.98363        0.55628        1.10116
C          2.31410       -0.12180       -0.00700
C          2.99550       -1.42410       -0.02580
C          2.30770       -2.63660       -0.01970
C          3.00350       -3.85150       -0.01910
C          4.40930       -3.89650        0.00450
C          5.10210       -5.19680       -0.05400
C          6.30494       -5.44705       -0.58624
F          7.04543       -4.47834       -1.16281
F          6.78576       -6.70847       -0.54341
C          5.11410       -2.67450        0.01020
C          6.61650       -2.55650        0.03250
C          4.39420       -1.45790        0.00230
H          1.47055        1.50855        1.02755
H          2.19425        0.18543        2.09902
H          2.04739        0.29351       -0.97517
H          1.22100       -2.66110       -0.01410
H          2.41690       -4.76710       -0.04050
H          4.58399       -6.04018        0.38861
H          7.13470       -3.51660        0.06410
H          6.93020       -1.99550        0.91970
H          6.95920       -2.02530       -0.86170
H          4.94820       -0.52030        0.00750
23

C          1.98363        0.55628        1.10116
C          2.31410       -0.12180       -0.00700
C          2.99550       -1.42410       -0.02580
C          2.30770       -2.63660       -0.01970
C          3.00350       -3.85150       -0.01910
C          4.40930       -3.89650        0.00450
C          5.10210       -5.19680       -0.05400
C          5.46728       -5.96386        0.98089
F          5.22992       -5.59953        2.25764
F          6.09283       -7.13512        0.73386
C          5.11410       -2.67450        0.01020
C          6.61650       -2.55650        0.03250
C          4.39420       -1.45790        0.00230
H          1.47055        1.50855        1.02755
H          2.19425        0.18543        2.09902
H          2.04739        0.29351       -0.97517
H          1.22100       -2.66110       -0.01410
H          2.41690       -4.76710       -0.04050
H          5.33438       -5.57597       -1.04290
H          7.13470       -3.51660        0.06410
H          6.93020       -1.99550        0.91970
H          6.95920       -2.02530       -0.86170
H          4.94820       -0.52030        0.00750
23

C          1.94441        0.56748       -1.09569
C          2.31410       -0.12180       -0.00700
C          2.99550       -1.42410       -0.02580
C          2.30770       -2.63660       -0.01970
C          3.00350       -3.85150       -0.01910
C          4.40930       -3.89650        0.00450
C          5.10210       -5.19680       -0.05400
C          6.28495       -5.50620        0.49177
F          7.00821       -4.60384        1.18590
F          6.76435       -6.75955        0.33854
C          5.11410       -2.67450        0.01020
C          6.61650       -2.55650        0.03250
C          4.39420       -1.45790        0.00230
H          1.45469        1.52944       -0.99428
H          2.12805        0.21147       -2.10423
H          2.12589        0.30645        0.97389
H          1.22100       -2.66110       -0.01410
H          2.41690       -4.76710       -0.04050
H          4.59484       -5.99031       -0.59127
H          7.13470       -3.51660        0.06410
H          6.93020       -1.99550        0.91970
H          6.95920       -2.02530       -0.86170
H          4.94820       -0.52030        0.00750
23

C          1.94441        0.56748       -1.09569
C          2.31410       -0.12180       -0.00700
C          2.99550       -1.42410       -0.02580
C          2.30770       -2.63660       -0.01970
C          3.00350       -3.85150       -0.01910
C          4.40930       -3.89650        0.00450
C          5.10210       -5.19680       -0.05400
C          5.50684       -5.84681       -1.15236
F          5.30358       -5.35118       -2.39019
F          6.13518       -7.03404       -1.01142
C          5.11410       -2.67450        0.01020
C          6.61650       -2.55650        0.03250
C          4.39420       -1.45790        0.00230
H          1.45469        1.52944       -0.99428
H          2.12805        0.21147       -2.10423
H          2.12589        0.30645        0.97389
H          1.22100       -2.66110       -0.01410
H          2.41690       -4.76710       -0.04050
H          5.31290       -5.67465        0.89619
H          7.13470       -3.51660        0.06410
H          6.93020       -1.99550        0.91970
H          6.95920       -2.02530       -0.86170
H          4.94820       -0.52030        0.00750
23

C          1.98363        0.55628        1.10116
C          2.31410       -0.12180       -0.00700
C          2.99550       -1.42410       -0.02580
C          2.30770       -2.63660       -0.01970
C          3.00350       -3.85150       -0.01910
C          4.40930       -3.89650        0.00450
C          5.10210       -5.19680       -0.05400
C          6.28495       -5.50620        0.49177
F          7.00821       -4.60384        1.18590
F          6.76435       -6.75955        0.33854
C          5.11410       -2.67450        0.01020
C          6.61650       -2.55650        0.03250
C          4.39420       -1.45790        0.00230
H          1.47055        1.50855        1.02755
H          2.19425        0.18543        2.09902
H          2.04739        0.29351       -0.97517
H          1.22100       -2.66110       -0.01410
H          2.41690       -4.76710       -0.04050
H          4.59484       -5.99031       -0.59127
H          7.13470       -3.51660        0.06410
H          6.93020       -1.99550        0.91970
H          6.95920       -2.02530       -0.86170
H          4.94820       -0.52030        0.00750
23

C          1.94441        0.56748       -1.09569
C          2.31410       -0.12180       -0.00700
C          2.99550       -1.42410       -0.02580
C          2.30770       -2.63660       -0.01970
C          3.00350       -3.85150       -0.01910
C          4.40930       -3.89650        0.00450
C          5.10210       -5.19680       -0.05400
C          6.30494       -5.44705       -0.58624
F          7.04543       -4.47834       -1.16281
F          6.78576       -6.70847       -0.54341
C          5.11410       -2.67450        0.01020
C          6.61650       -2.55650        0.03250
C          4.39420       -1.45790        0.00230
H          1.45469        1.52944       -0.99428
H          2.12805        0.21147       -2.10423
H          2.12589        0.30645        0.97389
H          1.22100       -2.66110       -0.01410
H          2.41690       -4.76710       -0.04050
H          4.58399       -6.04018        0.38861
H          7.13470       -3.51660        0.06410
H          6.93020       -1.99550        0.91970
H          6.95920       -2.02530       -0.86170
H          4.94820       -0.52030        0.00750
23

C          2.80779        0.99553        0.54514
C          2.31410       -0.12180       -0.00700
C          2.99550       -1.42410       -0.02580
C          2.30770       -2.63660       -0.01970
C          3.00350       -3.85150       -0.01910
C          4.40930       -3.89650        0.00450
C          5.10210       -5.19680       -0.05400
C          5.50684       -5.84681       -1.15236
F          5.30358       -5.35118       -2.39019
F          6.13518       -7.03404       -1.01142
C          5.11410       -2.67450        0.01020
C          6.61650       -2.55650        0.03250
C          4.39420       -1.45790        0.00230
H          2.23411        1.91532        0.52561
H          3.77333        1.02695        1.03946
H          1.32712       -0.09078       -0.46074
H          1.22100       -2.66110       -0.01410
H          2.41690       -4.76710       -0.04050
H          5.31290       -5.67465        0.89619
H          7.13470       -3.51660        0.06410
H          6.93020       -1.99550        0.91970
H          6.95920       -2.02530       -0.86170
H          4.94820       -0.52030        0.00750
23

C          2.80779        0.99553        0.54514
C          2.31410       -0.12180       -0.00700
C          2.99550       -1.42410       -0.02580
C          2.30770       -2.63660       -0.01970
C          3.00350       -3.85150       -0.01910
C          4.40930       -3.89650        0.00450
C          5.10210       -5.19680       -0.05400
C          5.46728       -5.96386        0.98089
F          5.22992       -5.59953        2.25764
F          6.09283       -7.13512        0.73386
C          5.11410       -2.67450        0.01020
C          6.61650       -2.55650        0.03250
C          4.39420       -1.45790        0.00230
H          2.23411        1.91532        0.52561
H          3.77333        1.02695        1.03946
H          1.32712       -0.09078       -0.46074
H          1.22100       -2.66110       -0.01410
H          2.41690       -4.76710       -0.04050
H          5.33438       -5.57597       -1.04290
H          7.13470       -3.51660        0.06410
H          6.93020       -1.99550        0.91970
H          6.95920       -2.02530       -0.86170
H          4.94820       -0.52030        0.00750
