23

C          2.81478       -1.03489        0.63714
C          2.45580        0.11440        0.05340
C          3.24500        0.76350       -1.02980
N          4.39640        0.25310       -1.52410
C          4.80670        1.09790       -2.47500
N          5.93460        0.94700       -3.20900
C          6.25040        1.89290       -4.13360
N          5.44610        2.98230       -4.30770
C          4.29550        3.14980       -3.56740
O          3.62470        4.14700       -3.73410
C          3.95400        2.16400       -2.62340
C          2.91150        1.96060       -1.69650
C          1.68030        2.75270       -1.38100
C          0.74663        2.47224       -0.46720
H          2.19354       -1.45441        1.42193
H          3.71212       -1.57399        0.36097
H          1.54121        0.57402        0.40487
H          4.89010       -0.62080       -1.23980
H          7.14990        1.78340       -4.72510
H          5.71820        3.70230       -5.01500
H          1.52373        3.67723       -1.92139
H          0.77546        1.62830        0.18984
H         -0.08958        3.15297       -0.34068
23

C          1.12615        0.22075        0.15927
C          2.45580        0.11440        0.05340
C          3.24500        0.76350       -1.02980
N          4.39640        0.25310       -1.52410
C          4.80670        1.09790       -2.47500
N          5.93460        0.94700       -3.20900
C          6.25040        1.89290       -4.13360
N          5.44610        2.98230       -4.30770
C          4.29550        3.14980       -3.56740
O          3.62470        4.14700       -3.73410
C          3.95400        2.16400       -2.62340
C          2.91150        1.96060       -1.69650
C          1.68030        2.75270       -1.38100
C          0.74663        2.47224       -0.46720
H          0.61167       -0.27847        0.97408
H          0.52868        0.78856       -0.54268
H          2.95822       -0.47868        0.80644
H          4.89010       -0.62080       -1.23980
H          7.14990        1.78340       -4.72510
H          5.71820        3.70230       -5.01500
H          1.52373        3.67723       -1.92139
H          0.77546        1.62830        0.18984
H         -0.08958        3.15297       -0.34068
23

C          1.47993       -0.77151       -0.17757
C          2.45580        0.11440        0.05340
C          3.24500        0.76350       -1.02980
N          4.39640        0.25310       -1.52410
C          4.80670        1.09790       -2.47500
N          5.93460        0.94700       -3.20900
C          6.25040        1.89290       -4.13360
N          5.44610        2.98230       -4.30770
C          4.29550        3.14980       -3.56740
O          3.62470        4.14700       -3.73410
C          3.95400        2.16400       -2.62340
C          2.91150        1.96060       -1.69650
C          1.68030        2.75270       -1.38100
C          0.47219        2.63188       -1.93895
H          0.94320       -1.20791        0.65867
H          1.19730       -1.08092       -1.17581
H          2.66100        0.35373        1.08871
H          4.89010       -0.62080       -1.23980
H          7.14990        1.78340       -4.72510
H          5.71820        3.70230       -5.01500
H          1.74506        3.49238       -0.59363
H          0.22106        1.91436       -2.69185
H         -0.33468        3.27147       -1.59469
23

C          2.64302        0.36946        1.35355
C          2.45580        0.11440        0.05340
C          3.24500        0.76350       -1.02980
N          4.39640        0.25310       -1.52410
C          4.80670        1.09790       -2.47500
N          5.93460        0.94700       -3.20900
C          6.25040        1.89290       -4.13360
N          5.44610        2.98230       -4.30770
C          4.29550        3.14980       -3.56740
O          3.62470        4.14700       -3.73410
C          3.95400        2.16400       -2.62340
C          2.91150        1.96060       -1.69650
C          1.68030        2.75270       -1.38100
C          1.55698        3.74096       -0.49017
H          2.03244       -0.13890        2.09286
H          3.38542        1.07275        1.70899
H          1.68595       -0.60427       -0.19577
H          4.89010       -0.62080       -1.23980
H          7.14990        1.78340       -4.72510
H          5.71820        3.70230       -5.01500
H          0.78390        2.53791       -1.94811
H          2.35644        4.11588        0.11403
H          0.59712        4.23625       -0.38062
23

C          2.64302        0.36946        1.35355
C          2.45580        0.11440        0.05340
C          3.24500        0.76350       -1.02980
N          4.39640        0.25310       -1.52410
C          4.80670        1.09790       -2.47500
N          5.93460        0.94700       -3.20900
C          6.25040        1.89290       -4.13360
N          5.44610        2.98230       -4.30770
C          4.29550        3.14980       -3.56740
O          3.62470        4.14700       -3.73410
C          3.95400        2.16400       -2.62340
C          2.91150        1.96060       -1.69650
C          1.68030        2.75270       -1.38100
C          0.47219        2.63188       -1.93895
H          2.03244       -0.13890        2.09286
H          3.38542        1.07275        1.70899
H          1.68595       -0.60427       -0.19577
H          4.89010       -0.62080       -1.23980
H          7.14990        1.78340       -4.72510
H          5.71820        3.70230       -5.01500
H          1.74506        3.49238       -0.59363
H          0.22106        1.91436       -2.69185
H         -0.33468        3.27147       -1.59469
23

C          1.47993       -0.77151       -0.17757
C          2.45580        0.11440        0.05340
C          3.24500        0.76350       -1.02980
N          4.39640        0.25310       -1.52410
C          4.80670        1.09790       -2.47500
N          5.93460        0.94700       -3.20900
C          6.25040        1.89290       -4.13360
N          5.44610        2.98230       -4.30770
C          4.29550        3.14980       -3.56740
O          3.62470        4.14700       -3.73410
C          3.95400        2.16400       -2.62340
C          2.91150        1.96060       -1.69650
C          1.68030        2.75270       -1.38100
C          1.55698        3.74096       -0.49017
H          0.94320       -1.20791        0.65867
H          1.19730       -1.08092       -1.17581
H          2.66100        0.35373        1.08871
H          4.89010       -0.62080       -1.23980
H          7.14990        1.78340       -4.72510
H          5.71820        3.70230       -5.01500
H          0.78390        2.53791       -1.94811
H          2.35644        4.11588        0.11403
H          0.59712        4.23625       -0.38062
23

C          1.71390        0.79732        0.93300
C          2.45580        0.11440        0.05340
C          3.24500        0.76350       -1.02980
N          4.39640        0.25310       -1.52410
C          4.80670        1.09790       -2.47500
N          5.93460        0.94700       -3.20900
C          6.25040        1.89290       -4.13360
N          5.44610        2.98230       -4.30770
C          4.29550        3.14980       -3.56740
O          3.62470        4.14700       -3.73410
C          3.95400        2.16400       -2.62340
C          2.91150        1.96060       -1.69650
C          1.68030        2.75270       -1.38100
C          0.47219        2.63188       -1.93895
H          1.16210        0.26174        1.69883
H          1.63441        1.87689        0.91511
H          2.46549       -0.96279        0.15735
H          4.89010       -0.62080       -1.23980
H          7.14990        1.78340       -4.72510
H          5.71820        3.70230       -5.01500
H          1.74506        3.49238       -0.59363
H          0.22106        1.91436       -2.69185
H         -0.33468        3.27147       -1.59469
23

C          1.71390        0.79732        0.93300
C          2.45580        0.11440        0.05340
C          3.24500        0.76350       -1.02980
N          4.39640        0.25310       -1.52410
C          4.80670        1.09790       -2.47500
N          5.93460        0.94700       -3.20900
C          6.25040        1.89290       -4.13360
N          5.44610        2.98230       -4.30770
C          4.29550        3.14980       -3.56740
O          3.62470        4.14700       -3.73410
C          3.95400        2.16400       -2.62340
C          2.91150        1.96060       -1.69650
C          1.68030        2.75270       -1.38100
C          1.55698        3.74096       -0.49017
H          1.16210        0.26174        1.69883
H          1.63441        1.87689        0.91511
H          2.46549       -0.96279        0.15735
H          4.89010       -0.62080       -1.23980
H          7.14990        1.78340       -4.72510
H          5.71820        3.70230       -5.01500
H          0.78390        2.53791       -1.94811
H          2.35644        4.11588        0.11403
H          0.59712        4.23625       -0.38062
23

C          1.31029        0.61555        0.53001
C          2.45580        0.11440        0.05340
C          3.24500        0.76350       -1.02980
N          4.39640        0.25310       -1.52410
C          4.80670        1.09790       -2.47500
N          5.93460        0.94700       -3.20900
C          6.25040        1.89290       -4.13360
N          5.44610        2.98230       -4.30770
C          4.29550        3.14980       -3.56740
O          3.62470        4.14700       -3.73410
C          3.95400        2.16400       -2.62340
C          2.91150        1.96060       -1.69650
C          1.68030        2.75270       -1.38100
C          1.55698        3.74096       -0.49017
H          0.78409        0.09139        1.32134
H          0.87462        1.53321        0.15559
H          2.80395       -0.81005        0.49547
H          4.89010       -0.62080       -1.23980
H          7.14990        1.78340       -4.72510
H          5.71820        3.70230       -5.01500
H          0.78390        2.53791       -1.94811
H          2.35644        4.11588        0.11403
H          0.59712        4.23625       -0.38062
23

C          1.12615        0.22075        0.15927
C          2.45580        0.11440        0.05340
C          3.24500        0.76350       -1.02980
N          4.39640        0.25310       -1.52410
C          4.80670        1.09790       -2.47500
N          5.93460        0.94700       -3.20900
C          6.25040        1.89290       -4.13360
N          5.44610        2.98230       -4.30770
C          4.29550        3.14980       -3.56740
O          3.62470        4.14700       -3.73410
C          3.95400        2.16400       -2.62340
C          2.91150        1.96060       -1.69650
C          1.68030        2.75270       -1.38100
C          1.55698        3.74096       -0.49017
H          0.61167       -0.27847        0.97408
H          0.52868        0.78856       -0.54268
H          2.95822       -0.47868        0.80644
H          4.89010       -0.62080       -1.23980
H          7.14990        1.78340       -4.72510
H          5.71820        3.70230       -5.01500
H          0.78390        2.53791       -1.94811
H          2.35644        4.11588        0.11403
H          0.59712        4.23625       -0.38062
