
 OpenBabel02012213433D

 41 44  0  0  0  0  0  0  0  0999 V2000
    1.7515   -1.2817    2.4853 C   0  0  0  0  0  0  0  0  0  0  0  0
    0.5631   -0.9055    1.6537 C   0  0  0  0  0  0  0  0  0  0  0  0
   -0.2304    0.1846    2.0038 C   0  0  0  0  0  0  0  0  0  0  0  0
   -1.3981    0.4617    1.2893 C   0  0  0  0  0  0  0  0  0  0  0  0
   -1.8207   -0.3425    0.2121 C   0  0  0  0  0  0  0  0  0  0  0  0
   -3.0482   -0.0606   -0.4791 N   0  0  0  0  0  0  0  0  0  0  0  0
   -3.7572    1.1769   -0.2520 C   0  0  0  0  0  0  0  0  0  0  0  0
   -3.6537    2.2721   -1.1408 C   0  0  0  0  0  0  0  0  0  0  0  0
   -2.8012    2.2964   -2.3936 C   0  0  0  0  0  0  0  0  0  0  0  0
   -2.3542    0.9703   -3.0093 C   0  0  0  0  0  0  0  0  0  0  0  0
   -3.3852   -0.1193   -2.8924 C   0  0  0  0  0  0  0  0  0  0  0  0
   -3.4960   -0.7712   -1.6506 C   0  0  0  0  0  0  0  0  0  0  0  0
   -4.3187   -1.8964   -1.5235 C   0  0  0  0  0  0  0  0  0  0  0  0
   -5.1546   -2.2550   -2.5822 C   0  0  0  0  0  0  0  0  0  0  0  0
   -5.1816   -1.4812   -3.7457 C   0  0  0  0  0  0  0  0  0  0  0  0
   -4.2775   -0.4321   -3.9156 C   0  0  0  0  0  0  0  0  0  0  0  0
   -4.4124    3.4276   -0.8786 C   0  0  0  0  0  0  0  0  0  0  0  0
   -5.2919    3.4829    0.2052 C   0  0  0  0  0  0  0  0  0  0  0  0
   -5.4205    2.3920    1.0496 C   0  0  0  0  0  0  0  0  0  0  0  0
   -4.6573    1.2423    0.8270 C   0  0  0  0  0  0  0  0  0  0  0  0
   -0.9822   -1.4041   -0.1601 C   0  0  0  0  0  0  0  0  0  0  0  0
    0.1962   -1.6797    0.5482 C   0  0  0  0  0  0  0  0  0  0  0  0
    1.9588   -0.5280    3.2526 H   0  0  0  0  0  0  0  0  0  0  0  0
    2.6449   -1.3836    1.8627 H   0  0  0  0  0  0  0  0  0  0  0  0
    1.5528   -2.2306    2.9947 H   0  0  0  0  0  0  0  0  0  0  0  0
    0.0369    0.8228    2.8428 H   0  0  0  0  0  0  0  0  0  0  0  0
   -1.9814    1.3228    1.6044 H   0  0  0  0  0  0  0  0  0  0  0  0
   -1.9084    2.9037   -2.1892 H   0  0  0  0  0  0  0  0  0  0  0  0
   -3.3713    2.8199   -3.1626 H   0  0  0  0  0  0  0  0  0  0  0  0
   -1.4260    0.6327   -2.5290 H   0  0  0  0  0  0  0  0  0  0  0  0
   -2.0777    1.1196   -4.0598 H   0  0  0  0  0  0  0  0  0  0  0  0
   -4.3759   -2.4310   -0.5800 H   0  0  0  0  0  0  0  0  0  0  0  0
   -5.8378   -3.0931   -2.4743 H   0  0  0  0  0  0  0  0  0  0  0  0
   -5.9169   -1.6905   -4.5188 H   0  0  0  0  0  0  0  0  0  0  0  0
   -4.3060    0.1670   -4.8213 H   0  0  0  0  0  0  0  0  0  0  0  0
   -4.3411    4.2856   -1.5429 H   0  0  0  0  0  0  0  0  0  0  0  0
   -5.8861    4.3810    0.3672 H   0  0  0  0  0  0  0  0  0  0  0  0
   -6.1297    2.4172    1.8732 H   0  0  0  0  0  0  0  0  0  0  0  0
   -4.7742    0.3845    1.4831 H   0  0  0  0  0  0  0  0  0  0  0  0
   -1.2307   -2.0345   -1.0096 H   0  0  0  0  0  0  0  0  0  0  0  0
    0.8178   -2.5167    0.2382 H   0  0  0  0  0  0  0  0  0  0  0  0
  1  2  1  0  0  0  0
  1 23  1  0  0  0  0
  1 24  1  0  0  0  0
  1 25  1  0  0  0  0
  2  3  1  0  0  0  0
  2 22  2  0  0  0  0
  3  4  2  0  0  0  0
  3 26  1  0  0  0  0
  4  5  1  0  0  0  0
  4 27  1  0  0  0  0
  5  6  1  0  0  0  0
  5 21  2  0  0  0  0
  6  7  1  0  0  0  0
  6 12  1  0  0  0  0
  7  8  1  0  0  0  0
  7 20  2  0  0  0  0
  8  9  1  0  0  0  0
  8 17  2  0  0  0  0
  9 10  1  0  0  0  0
  9 28  1  0  0  0  0
  9 29  1  0  0  0  0
 10 11  1  0  0  0  0
 10 30  1  0  0  0  0
 10 31  1  0  0  0  0
 11 12  1  0  0  0  0
 11 16  2  0  0  0  0
 12 13  2  0  0  0  0
 13 14  1  0  0  0  0
 13 32  1  0  0  0  0
 14 15  2  0  0  0  0
 14 33  1  0  0  0  0
 15 16  1  0  0  0  0
 15 34  1  0  0  0  0
 16 35  1  0  0  0  0
 17 18  1  0  0  0  0
 17 36  1  0  0  0  0
 18 19  2  0  0  0  0
 18 37  1  0  0  0  0
 19 20  1  0  0  0  0
 19 38  1  0  0  0  0
 20 39  1  0  0  0  0
 21 22  1  0  0  0  0
 21 40  1  0  0  0  0
 22 41  1  0  0  0  0
M  END
