
 OpenBabel02032211093D

 23 24  0  0  0  0  0  0  0  0999 V2000
    1.1275    0.2390   -0.0247 C   0  0  0  0  0  0  0  0  0  0  0  0
    2.4270   -0.0838   -0.0577 C   0  0  0  0  0  0  0  0  0  0  0  0
    3.1924   -0.2065   -1.2643 C   0  0  0  0  0  0  0  0  0  0  0  0
    2.8310    0.7579   -2.6395 S   0  0  0  0  0  0  0  0  0  0  0  0
    4.1091    0.1110   -3.5713 C   0  0  0  0  0  0  0  0  0  0  0  0
    4.4164    0.4511   -4.9063 C   0  0  0  0  0  0  0  0  0  0  0  0
    5.4970   -0.1620   -5.5353 C   0  0  0  0  0  0  0  0  0  0  0  0
    6.2545   -1.1016   -4.8562 C   0  0  0  0  0  0  0  0  0  0  0  0
    5.9355   -1.4449   -3.5366 C   0  0  0  0  0  0  0  0  0  0  0  0
    4.8496   -0.8301   -2.8529 C   0  0  0  0  0  0  0  0  0  0  0  0
    4.3119   -1.0053   -1.5131 C   0  0  0  0  0  0  0  0  0  0  0  0
    4.7956   -1.9308   -0.5162 C   0  0  0  0  0  0  0  0  0  0  0  0
    6.0654   -2.2770   -0.2743 C   0  0  0  0  0  0  0  0  0  0  0  0
    0.6058    0.3095    0.9238 H   0  0  0  0  0  0  0  0  0  0  0  0
    0.5406    0.4343   -0.9178 H   0  0  0  0  0  0  0  0  0  0  0  0
    2.9327   -0.2868    0.8835 H   0  0  0  0  0  0  0  0  0  0  0  0
    3.8136    1.1819   -5.4395 H   0  0  0  0  0  0  0  0  0  0  0  0
    5.7393    0.0954   -6.5633 H   0  0  0  0  0  0  0  0  0  0  0  0
    7.0959   -1.5811   -5.3505 H   0  0  0  0  0  0  0  0  0  0  0  0
    6.5362   -2.2027   -3.0433 H   0  0  0  0  0  0  0  0  0  0  0  0
    4.0415   -2.3769    0.1322 H   0  0  0  0  0  0  0  0  0  0  0  0
    6.9037   -1.8697   -0.8261 H   0  0  0  0  0  0  0  0  0  0  0  0
    6.2960   -2.9817    0.5205 H   0  0  0  0  0  0  0  0  0  0  0  0
  1  2  2  0  0  0  0
  1 14  1  0  0  0  0
  1 15  1  0  0  0  0
  2  3  1  0  0  0  0
  2 16  1  0  0  0  0
  3  4  1  0  0  0  0
  3 11  2  0  0  0  0
  4  5  1  0  0  0  0
  5  6  1  0  0  0  0
  5 10  2  0  0  0  0
  6  7  2  0  0  0  0
  6 17  1  0  0  0  0
  7  8  1  0  0  0  0
  7 18  1  0  0  0  0
  8  9  2  0  0  0  0
  8 19  1  0  0  0  0
  9 10  1  0  0  0  0
  9 20  1  0  0  0  0
 10 11  1  0  0  0  0
 11 12  1  0  0  0  0
 12 13  2  0  0  0  0
 12 21  1  0  0  0  0
 13 22  1  0  0  0  0
 13 23  1  0  0  0  0
M  END
