
  xtb     02032211093D
 xtb: 6.4.1 (23d549d)
 23 24  0     0  0            999 V2000
    2.7616   -0.1803    1.1854 c   0  0  0  0  0  0  0  0  0  0  0  0
    2.3134   -0.1614   -0.0645 c   0  0  0  0  0  0  0  0  0  0  0  0
    3.1173   -0.3489   -1.2528 c   0  0  0  0  0  0  0  0  0  0  0  0
    2.6000    0.5430   -2.6744 s   0  0  0  0  0  0  0  0  0  0  0  0
    3.9877    0.0044   -3.5677 c   0  0  0  0  0  0  0  0  0  0  0  0
    4.3065    0.3268   -4.8779 c   0  0  0  0  0  0  0  0  0  0  0  0
    5.4582   -0.2032   -5.4208 c   0  0  0  0  0  0  0  0  0  0  0  0
    6.2756   -1.0460   -4.6683 c   0  0  0  0  0  0  0  0  0  0  0  0
    5.9552   -1.3704   -3.3693 c   0  0  0  0  0  0  0  0  0  0  0  0
    4.8005   -0.8397   -2.7890 c   0  0  0  0  0  0  0  0  0  0  0  0
    4.2781   -1.0437   -1.4658 c   0  0  0  0  0  0  0  0  0  0  0  0
    4.9299   -1.9612   -0.5381 c   0  0  0  0  0  0  0  0  0  0  0  0
    4.3042   -2.8601    0.2078 c   0  0  0  0  0  0  0  0  0  0  0  0
    2.1039    0.0056    2.0161 h   0  0  0  0  0  0  0  0  0  0  0  0
    3.7932   -0.3804    1.4180 h   0  0  0  0  0  0  0  0  0  0  0  0
    1.2763    0.0834   -0.2605 h   0  0  0  0  0  0  0  0  0  0  0  0
    3.6635    0.9760   -5.4517 h   0  0  0  0  0  0  0  0  0  0  0  0
    5.7286    0.0346   -6.4385 h   0  0  0  0  0  0  0  0  0  0  0  0
    7.1716   -1.4511   -5.1152 h   0  0  0  0  0  0  0  0  0  0  0  0
    6.5911   -2.0305   -2.7989 h   0  0  0  0  0  0  0  0  0  0  0  0
    6.0124   -1.9154   -0.5372 h   0  0  0  0  0  0  0  0  0  0  0  0
    3.2307   -2.9485    0.2069 h   0  0  0  0  0  0  0  0  0  0  0  0
    4.8437   -3.5370    0.8476 h   0  0  0  0  0  0  0  0  0  0  0  0
  1  2  2  0  0  0  0
  2  3  1  0  0  0  0
  3  4  1  0  0  0  0
  4  5  1  0  0  0  0
  5  6  4  0  0  0  0
  6  7  4  0  0  0  0
  7  8  4  0  0  0  0
  8  9  4  0  0  0  0
  5 10  4  0  0  0  0
  9 10  4  0  0  0  0
  3 11  2  0  0  0  0
 10 11  1  0  0  0  0
 11 12  1  0  0  0  0
 12 13  2  0  0  0  0
  1 14  1  0  0  0  0
  1 15  1  0  0  0  0
  2 16  1  0  0  0  0
  6 17  1  0  0  0  0
  7 18  1  0  0  0  0
  8 19  1  0  0  0  0
  9 20  1  0  0  0  0
 12 21  1  0  0  0  0
 13 22  1  0  0  0  0
 13 23  1  0  0  0  0
M  END
