
 OpenBabel02032210483D

 47 49  0  0  0  0  0  0  0  0999 V2000
    6.1038    0.1595    0.9496 C   0  0  0  0  0  0  0  0  0  0  0  0
    5.0923    1.0148    1.3321 O   0  0  0  0  0  0  0  0  0  0  0  0
    3.8984    0.6037    1.8263 C   0  0  0  0  0  0  0  0  0  0  0  0
    2.8441    1.5910    2.2259 C   0  0  0  0  0  0  0  0  0  0  0  0
    2.8889    2.9964    1.9269 C   0  0  0  0  0  0  0  0  0  0  0  0
    3.8984    3.6095    1.0918 N   0  0  0  0  0  0  0  0  0  0  0  0
    4.4150    4.9108    1.4677 C   0  0  0  0  0  0  0  0  0  0  0  0
    4.5534    5.2594    2.8307 C   0  0  0  0  0  0  0  0  0  0  0  0
    5.0383    6.5245    3.2145 C   0  0  0  0  0  0  0  0  0  0  0  0
    5.1959    6.9082    4.6648 C   0  0  0  0  0  0  0  0  0  0  0  0
    4.8147    5.8826    5.5129 F   0  0  0  0  0  0  0  0  0  0  0  0
    6.5200    7.2190    4.9170 F   0  0  0  0  0  0  0  0  0  0  0  0
    4.4135    8.0162    4.9346 F   0  0  0  0  0  0  0  0  0  0  0  0
    5.3824    7.4543    2.2242 C   0  0  0  0  0  0  0  0  0  0  0  0
    5.2438    7.1321    0.8765 C   0  0  0  0  0  0  0  0  0  0  0  0
    4.7650    5.8783    0.4986 C   0  0  0  0  0  0  0  0  0  0  0  0
    4.2185    3.0360   -0.1981 C   0  0  0  0  0  0  0  0  0  0  0  0
    3.2999    2.2087   -0.8753 C   0  0  0  0  0  0  0  0  0  0  0  0
    3.6110    1.6607   -2.1222 C   0  0  0  0  0  0  0  0  0  0  0  0
    4.8488    1.9113   -2.7373 C   0  0  0  0  0  0  0  0  0  0  0  0
    5.0939    1.2959   -4.0774 C   0  0  0  0  0  0  0  0  0  0  0  0
    6.1850    1.4349   -4.8514 C   0  0  0  0  0  0  0  0  0  0  0  0
    7.2568    2.1880   -4.5021 F   0  0  0  0  0  0  0  0  0  0  0  0
    6.2227    0.7981   -6.0512 F   0  0  0  0  0  0  0  0  0  0  0  0
    5.7775    2.7221   -2.0575 C   0  0  0  0  0  0  0  0  0  0  0  0
    5.4667    3.2707   -0.8116 C   0  0  0  0  0  0  0  0  0  0  0  0
    1.8662    3.8243    2.4451 C   0  0  0  0  0  0  0  0  0  0  0  0
    0.8250    3.3061    3.2086 C   0  0  0  0  0  0  0  0  0  0  0  0
    0.7709    1.9461    3.4774 C   0  0  0  0  0  0  0  0  0  0  0  0
    1.7649    1.0992    2.9954 C   0  0  0  0  0  0  0  0  0  0  0  0
    3.7079   -0.5917    2.0140 O   0  0  0  0  0  0  0  0  0  0  0  0
    6.9658    0.7546    0.5850 H   0  0  0  0  0  0  0  0  0  0  0  0
    5.7532   -0.5018    0.1280 H   0  0  0  0  0  0  0  0  0  0  0  0
    6.4323   -0.4570    1.8138 H   0  0  0  0  0  0  0  0  0  0  0  0
    4.2921    4.5363    3.5915 H   0  0  0  0  0  0  0  0  0  0  0  0
    5.7547    8.4343    2.4973 H   0  0  0  0  0  0  0  0  0  0  0  0
    5.5030    7.8606    0.1188 H   0  0  0  0  0  0  0  0  0  0  0  0
    4.6512    5.6846   -0.5585 H   0  0  0  0  0  0  0  0  0  0  0  0
    2.3281    1.9939   -0.4518 H   0  0  0  0  0  0  0  0  0  0  0  0
    2.8718    1.0389   -2.6127 H   0  0  0  0  0  0  0  0  0  0  0  0
    4.3014    0.6702   -4.4801 H   0  0  0  0  0  0  0  0  0  0  0  0
    6.7494    2.9489   -2.4576 H   0  0  0  0  0  0  0  0  0  0  0  0
    6.2201    3.8724   -0.3212 H   0  0  0  0  0  0  0  0  0  0  0  0
    1.8599    4.8865    2.2349 H   0  0  0  0  0  0  0  0  0  0  0  0
    0.0516    3.9626    3.5860 H   0  0  0  0  0  0  0  0  0  0  0  0
   -0.0415    1.5451    4.0700 H   0  0  0  0  0  0  0  0  0  0  0  0
    1.6929    0.0483    3.2470 H   0  0  0  0  0  0  0  0  0  0  0  0
  1  2  1  0  0  0  0
  1 32  1  0  0  0  0
  1 33  1  0  0  0  0
  1 34  1  0  0  0  0
  2  3  1  0  0  0  0
  3  4  1  0  0  0  0
  3 31  2  0  0  0  0
  4  5  1  0  0  0  0
  4 30  2  0  0  0  0
  5  6  1  0  0  0  0
  5 27  2  0  0  0  0
  6  7  1  0  0  0  0
  6 17  1  0  0  0  0
  7  8  1  0  0  0  0
  7 16  2  0  0  0  0
  8  9  2  0  0  0  0
  8 35  1  0  0  0  0
  9 10  1  0  0  0  0
  9 14  1  0  0  0  0
 10 11  1  0  0  0  0
 10 12  1  0  0  0  0
 10 13  1  0  0  0  0
 14 15  2  0  0  0  0
 14 36  1  0  0  0  0
 15 16  1  0  0  0  0
 15 37  1  0  0  0  0
 16 38  1  0  0  0  0
 17 18  1  0  0  0  0
 17 26  2  0  0  0  0
 18 19  2  0  0  0  0
 18 39  1  0  0  0  0
 19 20  1  0  0  0  0
 19 40  1  0  0  0  0
 20 21  1  0  0  0  0
 20 25  2  0  0  0  0
 21 22  2  0  0  0  0
 21 41  1  0  0  0  0
 22 23  1  0  0  0  0
 22 24  1  0  0  0  0
 25 26  1  0  0  0  0
 25 42  1  0  0  0  0
 26 43  1  0  0  0  0
 27 28  1  0  0  0  0
 27 44  1  0  0  0  0
 28 29  2  0  0  0  0
 28 45  1  0  0  0  0
 29 30  1  0  0  0  0
 29 46  1  0  0  0  0
 30 47  1  0  0  0  0
M  END
