
 OpenBabel02032210573D

 20 20  0  0  0  0  0  0  0  0999 V2000
    1.1004    0.1909   -0.4933 C   0  0  0  0  0  0  0  0  0  0  0  0
    2.2087    0.0458    0.2451 C   0  0  0  0  0  0  0  0  0  0  0  0
    2.9992   -1.2119    0.3596 C   0  0  0  0  0  0  0  0  0  0  0  0
    2.6698   -2.3946   -0.3294 C   0  0  0  0  0  0  0  0  0  0  0  0
    3.4499   -3.5455   -0.1823 C   0  0  0  0  0  0  0  0  0  0  0  0
    4.5809   -3.5472    0.6592 C   0  0  0  0  0  0  0  0  0  0  0  0
    5.4430   -4.7502    0.8498 C   0  0  0  0  0  0  0  0  0  0  0  0
    5.2615   -5.9302    0.2408 C   0  0  0  0  0  0  0  0  0  0  0  0
    4.9062   -2.3637    1.3473 C   0  0  0  0  0  0  0  0  0  0  0  0
    5.9854   -2.3142    2.1700 F   0  0  0  0  0  0  0  0  0  0  0  0
    4.1254   -1.2144    1.1959 C   0  0  0  0  0  0  0  0  0  0  0  0
    0.5936    1.1505   -0.5108 H   0  0  0  0  0  0  0  0  0  0  0  0
    0.6738   -0.6101   -1.0820 H   0  0  0  0  0  0  0  0  0  0  0  0
    2.5496    0.9150    0.8014 H   0  0  0  0  0  0  0  0  0  0  0  0
    1.8152   -2.4492   -0.9863 H   0  0  0  0  0  0  0  0  0  0  0  0
    3.1513   -4.4233   -0.7341 H   0  0  0  0  0  0  0  0  0  0  0  0
    6.2873   -4.6764    1.5290 H   0  0  0  0  0  0  0  0  0  0  0  0
    4.4577   -6.1185   -0.4578 H   0  0  0  0  0  0  0  0  0  0  0  0
    5.9469   -6.7461    0.4457 H   0  0  0  0  0  0  0  0  0  0  0  0
    4.4038   -0.3190    1.7389 H   0  0  0  0  0  0  0  0  0  0  0  0
  1  2  2  0  0  0  0
  1 12  1  0  0  0  0
  1 13  1  0  0  0  0
  2  3  1  0  0  0  0
  2 14  1  0  0  0  0
  3  4  1  0  0  0  0
  3 11  2  0  0  0  0
  4  5  2  0  0  0  0
  4 15  1  0  0  0  0
  5  6  1  0  0  0  0
  5 16  1  0  0  0  0
  6  7  1  0  0  0  0
  6  9  2  0  0  0  0
  7  8  2  0  0  0  0
  7 17  1  0  0  0  0
  8 18  1  0  0  0  0
  8 19  1  0  0  0  0
  9 10  1  0  0  0  0
  9 11  1  0  0  0  0
 11 20  1  0  0  0  0
M  END
