
  xtb     02032211353D
 xtb: 6.4.1 (23d549d)
 35 35  0     0  0            999 V2000
   -4.4664   -2.4495   -0.4999 C   0  0  0  0  0  0  0  0  0  0  0  0
   -3.2990   -2.3406    0.1282 C   0  0  0  0  0  0  0  0  0  0  0  0
   -2.4814   -1.1597    0.1504 C   0  0  0  0  0  0  0  0  0  0  0  0
   -1.2786   -0.9961    0.7863 C   0  0  0  0  0  0  0  0  0  0  0  0
   -0.6981    0.2780    0.6286 C   0  0  0  0  0  0  0  0  0  0  0  0
    0.6062    0.6273    1.2721 C   0  0  0  0  0  0  0  0  0  0  0  0
    1.7887    0.2295    0.3801 C   0  0  0  0  0  0  0  0  0  0  0  0
    3.1217    0.6370    1.0027 C   0  0  0  0  0  0  0  0  0  0  0  0
    4.3244    0.3405    0.1065 C   0  0  0  0  0  0  0  0  0  0  0  0
    4.5997   -1.1513   -0.0699 C   0  0  0  0  0  0  0  0  0  0  0  0
    5.8722   -1.3941   -0.8726 C   0  0  0  0  0  0  0  0  0  0  0  0
   -1.4702    1.1098   -0.1533 C   0  0  0  0  0  0  0  0  0  0  0  0
   -1.3107    2.4773   -0.5783 C   0  0  0  0  0  0  0  0  0  0  0  0
   -0.1896    3.1925   -0.6313 C   0  0  0  0  0  0  0  0  0  0  0  0
   -2.9307    0.3036   -0.6667 S   0  0  0  0  0  0  0  0  0  0  0  0
   -5.0370   -3.3608   -0.4816 H   0  0  0  0  0  0  0  0  0  0  0  0
   -4.8840   -1.6238   -1.0523 H   0  0  0  0  0  0  0  0  0  0  0  0
   -2.8924   -3.1794    0.6796 H   0  0  0  0  0  0  0  0  0  0  0  0
   -0.8185   -1.7783    1.3659 H   0  0  0  0  0  0  0  0  0  0  0  0
    0.6856    0.0909    2.2210 H   0  0  0  0  0  0  0  0  0  0  0  0
    0.6416    1.6965    1.4870 H   0  0  0  0  0  0  0  0  0  0  0  0
    1.6816    0.7028   -0.5987 H   0  0  0  0  0  0  0  0  0  0  0  0
    1.7617   -0.8504    0.2267 H   0  0  0  0  0  0  0  0  0  0  0  0
    3.2477    0.1216    1.9580 H   0  0  0  0  0  0  0  0  0  0  0  0
    3.0978    1.7103    1.2107 H   0  0  0  0  0  0  0  0  0  0  0  0
    5.2093    0.8075    0.5465 H   0  0  0  0  0  0  0  0  0  0  0  0
    4.1653    0.7963   -0.8739 H   0  0  0  0  0  0  0  0  0  0  0  0
    3.7604   -1.6244   -0.5822 H   0  0  0  0  0  0  0  0  0  0  0  0
    4.6974   -1.6175    0.9134 H   0  0  0  0  0  0  0  0  0  0  0  0
    5.7904   -0.9458   -1.8605 H   0  0  0  0  0  0  0  0  0  0  0  0
    6.0522   -2.4598   -0.9935 H   0  0  0  0  0  0  0  0  0  0  0  0
    6.7315   -0.9560   -0.3692 H   0  0  0  0  0  0  0  0  0  0  0  0
   -2.2338    2.9358   -0.9137 H   0  0  0  0  0  0  0  0  0  0  0  0
    0.7744    2.8011   -0.3657 H   0  0  0  0  0  0  0  0  0  0  0  0
   -0.2098    4.2148   -0.9683 H   0  0  0  0  0  0  0  0  0  0  0  0
  1  2  2  0  0  0  0
  2  3  1  0  0  0  0
  3  4  2  0  0  0  0
  4  5  4  0  0  0  0
  5  6  1  0  0  0  0
  6  7  1  0  0  0  0
  7  8  1  0  0  0  0
  8  9  1  0  0  0  0
  9 10  1  0  0  0  0
 10 11  1  0  0  0  0
  5 12  4  0  0  0  0
 12 13  1  0  0  0  0
 13 14  2  0  0  0  0
  3 15  1  0  0  0  0
 12 15  1  0  0  0  0
  1 16  1  0  0  0  0
  1 17  1  0  0  0  0
  2 18  1  0  0  0  0
  4 19  1  0  0  0  0
  6 20  1  0  0  0  0
  6 21  1  0  0  0  0
  7 22  1  0  0  0  0
  7 23  1  0  0  0  0
  8 24  1  0  0  0  0
  8 25  1  0  0  0  0
  9 26  1  0  0  0  0
  9 27  1  0  0  0  0
 10 28  1  0  0  0  0
 10 29  1  0  0  0  0
 11 30  1  0  0  0  0
 11 31  1  0  0  0  0
 11 32  1  0  0  0  0
 13 33  1  0  0  0  0
 14 34  1  0  0  0  0
 14 35  1  0  0  0  0
M  END
