
  xtb     02032211283D
 xtb: 6.4.1 (23d549d)
 41 43  0     0  0            999 V2000
    4.1583   -3.3790    2.4958 c   0  0  0  0  0  0  0  0  0  0  0  0
    3.8056   -3.7800    1.2811 c   0  0  0  0  0  0  0  0  0  0  0  0
    3.9258   -3.0196    0.0406 c   0  0  0  0  0  0  0  0  0  0  0  0
    4.6234   -1.8176   -0.0365 c   0  0  0  0  0  0  0  0  0  0  0  0
    4.6921   -1.1229   -1.2383 c   0  0  0  0  0  0  0  0  0  0  0  0
    5.4135    0.1393   -1.3746 c   0  0  0  0  0  0  0  0  0  0  0  0
    6.2417    0.6799   -0.4900 c   0  0  0  0  0  0  0  0  0  0  0  0
    4.0624   -1.6448   -2.3675 c   0  0  0  0  0  0  0  0  0  0  0  0
    3.3710   -2.8565   -2.3298 c   0  0  0  0  0  0  0  0  0  0  0  0
    2.6822   -3.3642   -3.4270 n   0  0  0  0  0  0  0  0  0  0  0  0
    2.7324   -4.7818   -3.7107 c   0  0  0  0  0  0  0  0  0  0  0  0
    3.9719   -5.1348   -4.5417 c   0  0  0  0  0  0  0  0  0  0  0  0
    3.9721   -4.3394   -5.8549 c   0  0  0  0  0  0  0  0  0  0  0  0
    3.8387   -2.8406   -5.5518 c   0  0  0  0  0  0  0  0  0  0  0  0
    2.6145   -2.6117   -4.6581 c   0  0  0  0  0  0  0  0  0  0  0  0
    2.8989   -4.7955   -6.6678 o   0  0  0  0  0  0  0  0  0  0  0  0
    3.3992   -5.0462   -7.9602 c   0  0  0  0  0  0  0  0  0  0  0  0
    4.8719   -5.3648   -7.6980 c   0  0  0  0  0  0  0  0  0  0  0  0
    5.1712   -4.5541   -6.5853 o   0  0  0  0  0  0  0  0  0  0  0  0
    3.3126   -3.5227   -1.1024 c   0  0  0  0  0  0  0  0  0  0  0  0
    4.0274   -4.0137    3.3556 h   0  0  0  0  0  0  0  0  0  0  0  0
    4.5819   -2.4084    2.6889 h   0  0  0  0  0  0  0  0  0  0  0  0
    3.3680   -4.7646    1.1639 h   0  0  0  0  0  0  0  0  0  0  0  0
    5.1075   -1.4217    0.8398 h   0  0  0  0  0  0  0  0  0  0  0  0
    5.2470    0.6541   -2.3131 h   0  0  0  0  0  0  0  0  0  0  0  0
    6.4680    0.2162    0.4539 h   0  0  0  0  0  0  0  0  0  0  0  0
    6.7348    1.6174   -0.6817 h   0  0  0  0  0  0  0  0  0  0  0  0
    4.1425   -1.0862   -3.2867 h   0  0  0  0  0  0  0  0  0  0  0  0
    1.8377   -5.0458   -4.2826 h   0  0  0  0  0  0  0  0  0  0  0  0
    2.7388   -5.3591   -2.7885 h   0  0  0  0  0  0  0  0  0  0  0  0
    3.9811   -6.2011   -4.7699 h   0  0  0  0  0  0  0  0  0  0  0  0
    4.8796   -4.8824   -3.9913 h   0  0  0  0  0  0  0  0  0  0  0  0
    3.7342   -2.2931   -6.4893 h   0  0  0  0  0  0  0  0  0  0  0  0
    4.7553   -2.5190   -5.0575 h   0  0  0  0  0  0  0  0  0  0  0  0
    1.7284   -2.9604   -5.1995 h   0  0  0  0  0  0  0  0  0  0  0  0
    2.4806   -1.5523   -4.4382 h   0  0  0  0  0  0  0  0  0  0  0  0
    3.2977   -4.1532   -8.5923 h   0  0  0  0  0  0  0  0  0  0  0  0
    2.8369   -5.8728   -8.3938 h   0  0  0  0  0  0  0  0  0  0  0  0
    5.5374   -5.0884   -8.5152 h   0  0  0  0  0  0  0  0  0  0  0  0
    5.0068   -6.4262   -7.4486 h   0  0  0  0  0  0  0  0  0  0  0  0
    2.7519   -4.4411   -1.0154 h   0  0  0  0  0  0  0  0  0  0  0  0
  1  2  2  0  0  0  0
  2  3  1  0  0  0  0
  3  4  4  0  0  0  0
  4  5  4  0  0  0  0
  5  6  1  0  0  0  0
  6  7  2  0  0  0  0
  5  8  4  0  0  0  0
  8  9  4  0  0  0  0
  9 10  1  0  0  0  0
 10 11  1  0  0  0  0
 11 12  1  0  0  0  0
 12 13  1  0  0  0  0
 13 14  1  0  0  0  0
 10 15  1  0  0  0  0
 14 15  1  0  0  0  0
 13 16  1  0  0  0  0
 16 17  1  0  0  0  0
 17 18  1  0  0  0  0
 13 19  1  0  0  0  0
 18 19  1  0  0  0  0
  3 20  4  0  0  0  0
  9 20  4  0  0  0  0
  1 21  1  0  0  0  0
  1 22  1  0  0  0  0
  2 23  1  0  0  0  0
  4 24  1  0  0  0  0
  6 25  1  0  0  0  0
  7 26  1  0  0  0  0
  7 27  1  0  0  0  0
  8 28  1  0  0  0  0
 11 29  1  0  0  0  0
 11 30  1  0  0  0  0
 12 31  1  0  0  0  0
 12 32  1  0  0  0  0
 14 33  1  0  0  0  0
 14 34  1  0  0  0  0
 15 35  1  0  0  0  0
 15 36  1  0  0  0  0
 17 37  1  0  0  0  0
 17 38  1  0  0  0  0
 18 39  1  0  0  0  0
 18 40  1  0  0  0  0
 20 41  1  0  0  0  0
M  END
