 xtb: 6.5.0 (unknown)
          08112218563D

 23  0  0     0  0            999 V2000
   -3.5785    2.9391    0.0428 C   0  0  0  0  0  0  0  0  0  0  0  0
   -2.2756    2.7130   -0.0700 C   0  0  0  0  0  0  0  0  0  0  0  0
   -1.6081    1.4160   -0.0397 C   0  0  0  0  0  0  0  0  0  0  0  0
   -2.3027    0.2064    0.0019 C   0  0  0  0  0  0  0  0  0  0  0  0
   -1.6324   -1.0057    0.0334 C   0  0  0  0  0  0  0  0  0  0  0  0
   -2.3853   -2.3014    0.0631 C   0  0  0  0  0  0  0  0  0  0  0  0
   -0.2436   -1.0186    0.0229 C   0  0  0  0  0  0  0  0  0  0  0  0
    0.4798    0.1719   -0.0213 C   0  0  0  0  0  0  0  0  0  0  0  0
    1.9341    0.2248   -0.0351 C   0  0  0  0  0  0  0  0  0  0  0  0
    2.7983   -0.7779   -0.0020 C   0  0  0  0  0  0  0  0  0  0  0  0
    2.5447   -2.0806    0.0521 F   0  0  0  0  0  0  0  0  0  0  0  0
    4.1197   -0.5998   -0.0193 F   0  0  0  0  0  0  0  0  0  0  0  0
   -0.2171    1.3787   -0.0544 C   0  0  0  0  0  0  0  0  0  0  0  0
   -3.9769    3.9387    0.0103 H   0  0  0  0  0  0  0  0  0  0  0  0
   -4.2997    2.1511    0.1745 H   0  0  0  0  0  0  0  0  0  0  0  0
   -1.6074    3.5573   -0.1905 H   0  0  0  0  0  0  0  0  0  0  0  0
   -3.3817    0.2084    0.0049 H   0  0  0  0  0  0  0  0  0  0  0  0
   -3.4392   -2.1373    0.2718 H   0  0  0  0  0  0  0  0  0  0  0  0
   -1.9749   -2.9647    0.8219 H   0  0  0  0  0  0  0  0  0  0  0  0
   -2.2996   -2.8048   -0.8997 H   0  0  0  0  0  0  0  0  0  0  0  0
    0.2663   -1.9679    0.0478 H   0  0  0  0  0  0  0  0  0  0  0  0
    2.3791    1.2088   -0.0770 H   0  0  0  0  0  0  0  0  0  0  0  0
    0.3356    2.3070   -0.0878 H   0  0  0  0  0  0  0  0  0  0  0  0
M  END
