
 OpenBabel02032210423D

 36 39  0  0  0  0  0  0  0  0999 V2000
    0.8336   -0.1321    0.3482 F   0  0  0  0  0  0  0  0  0  0  0  0
    2.1741    0.0299    0.3679 C   0  0  0  0  0  0  0  0  0  0  0  0
    2.6894    1.2729    0.2778 F   0  0  0  0  0  0  0  0  0  0  0  0
    2.9563   -1.0523    0.4525 C   0  0  0  0  0  0  0  0  0  0  0  0
    4.4267   -1.0651    0.4612 C   0  0  0  0  0  0  0  0  0  0  0  0
    5.1796   -0.0209    0.9971 C   0  0  0  0  0  0  0  0  0  0  0  0
    6.5769   -0.0645    0.9935 C   0  0  0  0  0  0  0  0  0  0  0  0
    5.0878   -2.1921   -0.0576 C   0  0  0  0  0  0  0  0  0  0  0  0
    6.5025   -2.2182   -0.1081 C   0  0  0  0  0  0  0  0  0  0  0  0
    7.2465   -1.1733    0.4345 C   0  0  0  0  0  0  0  0  0  0  0  0
    8.6283   -1.4963    0.2971 C   0  0  0  0  0  0  0  0  0  0  0  0
    9.8165   -0.8177    0.6472 C   0  0  0  0  0  0  0  0  0  0  0  0
   11.0586   -1.3816    0.3580 C   0  0  0  0  0  0  0  0  0  0  0  0
   11.1337   -2.6045   -0.2936 C   0  0  0  0  0  0  0  0  0  0  0  0
    9.9721   -3.2869   -0.6644 C   0  0  0  0  0  0  0  0  0  0  0  0
    8.7138   -2.7405   -0.3330 C   0  0  0  0  0  0  0  0  0  0  0  0
    7.4046   -3.1761   -0.5884 N   0  0  0  0  0  0  0  0  0  0  0  0
    7.0592   -4.3849   -1.2767 C   0  0  0  0  0  0  0  0  0  0  0  0
    7.8047   -5.5538   -1.0716 C   0  0  0  0  0  0  0  0  0  0  0  0
    7.5378   -6.7027   -1.8189 C   0  0  0  0  0  0  0  0  0  0  0  0
    6.5013   -6.7048   -2.7487 C   0  0  0  0  0  0  0  0  0  0  0  0
    5.7255   -5.5614   -2.9269 C   0  0  0  0  0  0  0  0  0  0  0  0
    6.0061   -4.4006   -2.2013 C   0  0  0  0  0  0  0  0  0  0  0  0
    2.4682   -2.0233    0.4889 H   0  0  0  0  0  0  0  0  0  0  0  0
    4.6986    0.8470    1.4439 H   0  0  0  0  0  0  0  0  0  0  0  0
    7.1429    0.7574    1.4230 H   0  0  0  0  0  0  0  0  0  0  0  0
    4.5073   -3.0355   -0.4177 H   0  0  0  0  0  0  0  0  0  0  0  0
    9.7668    0.1540    1.1341 H   0  0  0  0  0  0  0  0  0  0  0  0
   11.9703   -0.8548    0.6274 H   0  0  0  0  0  0  0  0  0  0  0  0
   12.1053   -3.0315   -0.5338 H   0  0  0  0  0  0  0  0  0  0  0  0
   10.0694   -4.2153   -1.2185 H   0  0  0  0  0  0  0  0  0  0  0  0
    8.5847   -5.6021   -0.3159 H   0  0  0  0  0  0  0  0  0  0  0  0
    8.1406   -7.5953   -1.6737 H   0  0  0  0  0  0  0  0  0  0  0  0
    6.3002   -7.5966   -3.3365 H   0  0  0  0  0  0  0  0  0  0  0  0
    4.9151   -5.5642   -3.6512 H   0  0  0  0  0  0  0  0  0  0  0  0
    5.4281   -3.5078   -2.4225 H   0  0  0  0  0  0  0  0  0  0  0  0
  1  2  1  0  0  0  0
  2  3  1  0  0  0  0
  2  4  2  0  0  0  0
  4  5  1  0  0  0  0
  4 24  1  0  0  0  0
  5  6  2  0  0  0  0
  5  8  1  0  0  0  0
  6  7  1  0  0  0  0
  6 25  1  0  0  0  0
  7 10  2  0  0  0  0
  7 26  1  0  0  0  0
  8  9  2  0  0  0  0
  8 27  1  0  0  0  0
  9 10  1  0  0  0  0
  9 17  1  0  0  0  0
 10 11  1  0  0  0  0
 11 12  2  0  0  0  0
 11 16  1  0  0  0  0
 12 13  1  0  0  0  0
 12 28  1  0  0  0  0
 13 14  2  0  0  0  0
 13 29  1  0  0  0  0
 14 15  1  0  0  0  0
 14 30  1  0  0  0  0
 15 16  2  0  0  0  0
 15 31  1  0  0  0  0
 16 17  1  0  0  0  0
 17 18  1  0  0  0  0
 18 19  1  0  0  0  0
 18 23  2  0  0  0  0
 19 20  2  0  0  0  0
 19 32  1  0  0  0  0
 20 21  1  0  0  0  0
 20 33  1  0  0  0  0
 21 22  2  0  0  0  0
 21 34  1  0  0  0  0
 22 23  1  0  0  0  0
 22 35  1  0  0  0  0
 23 36  1  0  0  0  0
M  END
