
  xtb     02032211343D
 xtb: 6.4.1 (23d549d)
 46 48  0     0  0            999 V2000
    1.7921   -6.2517    0.5207 C   0  0  0  0  0  0  0  0  0  0  0  0
    2.3865   -5.2313   -0.2428 O   0  0  0  0  0  0  0  0  0  0  0  0
    1.8988   -3.9635   -0.1258 C   0  0  0  0  0  0  0  0  0  0  0  0
    2.5212   -2.9954   -0.9164 C   0  0  0  0  0  0  0  0  0  0  0  0
    2.1040   -1.6844   -0.8821 C   0  0  0  0  0  0  0  0  0  0  0  0
    1.0551   -1.2972   -0.0470 C   0  0  0  0  0  0  0  0  0  0  0  0
    0.6397    0.0434   -0.0017 N   0  0  0  0  0  0  0  0  0  0  0  0
   -0.7071    0.3643    0.0839 C   0  0  0  0  0  0  0  0  0  0  0  0
   -1.1280    1.5218    0.7468 C   0  0  0  0  0  0  0  0  0  0  0  0
   -2.4654    1.8333    0.8278 C   0  0  0  0  0  0  0  0  0  0  0  0
   -3.4421    1.0097    0.2587 C   0  0  0  0  0  0  0  0  0  0  0  0
   -4.8325    1.4001    0.3870 C   0  0  0  0  0  0  0  0  0  0  0  0
   -5.9142    0.7684   -0.0472 C   0  0  0  0  0  0  0  0  0  0  0  0
   -5.9841   -0.3837   -0.7087 F   0  0  0  0  0  0  0  0  0  0  0  0
   -7.1525    1.2334    0.1360 F   0  0  0  0  0  0  0  0  0  0  0  0
   -3.0170   -0.1457   -0.4039 C   0  0  0  0  0  0  0  0  0  0  0  0
   -1.6800   -0.4606   -0.4904 C   0  0  0  0  0  0  0  0  0  0  0  0
    1.6137    1.0538   -0.0454 C   0  0  0  0  0  0  0  0  0  0  0  0
    2.8130    0.9088    0.6432 C   0  0  0  0  0  0  0  0  0  0  0  0
    3.7869    1.8899    0.5923 C   0  0  0  0  0  0  0  0  0  0  0  0
    3.5732    3.0481   -0.1464 C   0  0  0  0  0  0  0  0  0  0  0  0
    4.4573    4.0794   -0.2631 O   0  0  0  0  0  0  0  0  0  0  0  0
    5.6897    3.9855    0.4074 C   0  0  0  0  0  0  0  0  0  0  0  0
    2.3690    3.1965   -0.8376 C   0  0  0  0  0  0  0  0  0  0  0  0
    1.4067    2.2137   -0.7939 C   0  0  0  0  0  0  0  0  0  0  0  0
    0.4436   -2.2609    0.7476 C   0  0  0  0  0  0  0  0  0  0  0  0
    0.8527   -3.5818    0.7067 C   0  0  0  0  0  0  0  0  0  0  0  0
    2.3275   -7.1637    0.2613 H   0  0  0  0  0  0  0  0  0  0  0  0
    0.7321   -6.3732    0.2749 H   0  0  0  0  0  0  0  0  0  0  0  0
    1.8970   -6.0650    1.5946 H   0  0  0  0  0  0  0  0  0  0  0  0
    3.3299   -3.3026   -1.5601 H   0  0  0  0  0  0  0  0  0  0  0  0
    2.5880   -0.9464   -1.5041 H   0  0  0  0  0  0  0  0  0  0  0  0
   -0.3940    2.1680    1.2045 H   0  0  0  0  0  0  0  0  0  0  0  0
   -2.7679    2.7287    1.3512 H   0  0  0  0  0  0  0  0  0  0  0  0
   -5.0257    2.3281    0.9062 H   0  0  0  0  0  0  0  0  0  0  0  0
   -3.7355   -0.8018   -0.8670 H   0  0  0  0  0  0  0  0  0  0  0  0
   -1.3724   -1.3511   -1.0179 H   0  0  0  0  0  0  0  0  0  0  0  0
    2.9871    0.0152    1.2242 H   0  0  0  0  0  0  0  0  0  0  0  0
    4.7038    1.7388    1.1396 H   0  0  0  0  0  0  0  0  0  0  0  0
    6.2244    4.9041    0.1711 H   0  0  0  0  0  0  0  0  0  0  0  0
    6.2740    3.1278    0.0583 H   0  0  0  0  0  0  0  0  0  0  0  0
    5.5542    3.9157    1.4918 H   0  0  0  0  0  0  0  0  0  0  0  0
    2.2168    4.0950   -1.4140 H   0  0  0  0  0  0  0  0  0  0  0  0
    0.4853    2.3354   -1.3435 H   0  0  0  0  0  0  0  0  0  0  0  0
   -0.3629   -1.9743    1.4063 H   0  0  0  0  0  0  0  0  0  0  0  0
    0.3511   -4.2991    1.3368 H   0  0  0  0  0  0  0  0  0  0  0  0
  1  2  1  0  0  0  0
  2  3  1  0  0  0  0
  3  4  4  0  0  0  0
  4  5  4  0  0  0  0
  5  6  4  0  0  0  0
  6  7  1  0  0  0  0
  7  8  1  0  0  0  0
  8  9  4  0  0  0  0
  9 10  4  0  0  0  0
 10 11  4  0  0  0  0
 11 12  1  0  0  0  0
 12 13  2  0  0  0  0
 13 14  1  0  0  0  0
 13 15  1  0  0  0  0
 11 16  4  0  0  0  0
  8 17  4  0  0  0  0
 16 17  4  0  0  0  0
  7 18  1  0  0  0  0
 18 19  4  0  0  0  0
 19 20  4  0  0  0  0
 20 21  4  0  0  0  0
 21 22  1  0  0  0  0
 22 23  1  0  0  0  0
 21 24  4  0  0  0  0
 18 25  4  0  0  0  0
 24 25  4  0  0  0  0
  6 26  4  0  0  0  0
  3 27  4  0  0  0  0
 26 27  4  0  0  0  0
  1 28  1  0  0  0  0
  1 29  1  0  0  0  0
  1 30  1  0  0  0  0
  4 31  1  0  0  0  0
  5 32  1  0  0  0  0
  9 33  1  0  0  0  0
 10 34  1  0  0  0  0
 12 35  1  0  0  0  0
 16 36  1  0  0  0  0
 17 37  1  0  0  0  0
 19 38  1  0  0  0  0
 20 39  1  0  0  0  0
 23 40  1  0  0  0  0
 23 41  1  0  0  0  0
 23 42  1  0  0  0  0
 24 43  1  0  0  0  0
 25 44  1  0  0  0  0
 26 45  1  0  0  0  0
 27 46  1  0  0  0  0
M  END
