
  xtb     02032211363D
 xtb: 6.4.1 (23d549d)
 24 24  0     0  0            999 V2000
    2.4839    3.0225    0.0002 C   0  0  0  0  0  0  0  0  0  0  0  0
    2.5724    1.6966    0.0008 C   0  0  0  0  0  0  0  0  0  0  0  0
    1.4482    0.7880   -0.0003 C   0  0  0  0  0  0  0  0  0  0  0  0
    0.0828    1.1251   -0.0007 C   0  0  0  0  0  0  0  0  0  0  0  0
   -0.6381   -0.0544   -0.0012 C   0  0  0  0  0  0  0  0  0  0  0  0
   -2.0642   -0.3312   -0.0007 C   0  0  0  0  0  0  0  0  0  0  0  0
   -2.5312   -1.4509   -0.0007 O   0  0  0  0  0  0  0  0  0  0  0  0
   -2.8093    0.7870    0.0002 O   0  0  0  0  0  0  0  0  0  0  0  0
   -4.2138    0.5875    0.0019 C   0  0  0  0  0  0  0  0  0  0  0  0
    0.2509   -1.0894   -0.0012 N   0  0  0  0  0  0  0  0  0  0  0  0
    1.5199   -0.6173   -0.0006 C   0  0  0  0  0  0  0  0  0  0  0  0
    2.6803   -1.4662   -0.0002 C   0  0  0  0  0  0  0  0  0  0  0  0
    2.6690   -2.7983    0.0019 C   0  0  0  0  0  0  0  0  0  0  0  0
    3.3622    3.6445    0.0014 H   0  0  0  0  0  0  0  0  0  0  0  0
    1.5371    3.5337   -0.0017 H   0  0  0  0  0  0  0  0  0  0  0  0
    3.5503    1.2335    0.0026 H   0  0  0  0  0  0  0  0  0  0  0  0
   -0.3422    2.1075   -0.0006 H   0  0  0  0  0  0  0  0  0  0  0  0
   -4.6611    1.5780   -0.0020 H   0  0  0  0  0  0  0  0  0  0  0  0
   -4.5183    0.0323    0.8919 H   0  0  0  0  0  0  0  0  0  0  0  0
   -4.5196    0.0246   -0.8828 H   0  0  0  0  0  0  0  0  0  0  0  0
   -0.0340   -2.0557   -0.0018 H   0  0  0  0  0  0  0  0  0  0  0  0
    3.6281   -0.9468   -0.0015 H   0  0  0  0  0  0  0  0  0  0  0  0
    1.7601   -3.3760    0.0036 H   0  0  0  0  0  0  0  0  0  0  0  0
    3.5843   -3.3632    0.0019 H   0  0  0  0  0  0  0  0  0  0  0  0
  1  2  2  0  0  0  0
  2  3  1  0  0  0  0
  3  4  4  0  0  0  0
  4  5  4  0  0  0  0
  5  6  1  0  0  0  0
  6  7  2  0  0  0  0
  6  8  1  0  0  0  0
  8  9  1  0  0  0  0
  5 10  1  0  0  0  0
  3 11  4  0  0  0  0
 10 11  4  0  0  0  0
 11 12  1  0  0  0  0
 12 13  2  0  0  0  0
  1 14  1  0  0  0  0
  1 15  1  0  0  0  0
  2 16  1  0  0  0  0
  4 17  1  0  0  0  0
  9 18  1  0  0  0  0
  9 19  1  0  0  0  0
  9 20  1  0  0  0  0
 10 21  1  0  0  0  0
 12 22  1  0  0  0  0
 13 23  1  0  0  0  0
 13 24  1  0  0  0  0
M  END
