
  xtb     02032211353D
 xtb: 6.4.1 (23d549d)
 26 26  0     0  0            999 V2000
    3.7562   -0.0480    0.6278 C   0  0  0  0  0  0  0  0  0  0  0  0
    2.7980   -0.6282   -0.0812 C   0  0  0  0  0  0  0  0  0  0  0  0
    1.3844   -0.2493   -0.1104 C   0  0  0  0  0  0  0  0  0  0  0  0
    0.4495   -1.2826   -0.1477 C   0  0  0  0  0  0  0  0  0  0  0  0
   -0.9191   -1.0715   -0.1332 C   0  0  0  0  0  0  0  0  0  0  0  0
   -1.8339   -2.2583   -0.1922 C   0  0  0  0  0  0  0  0  0  0  0  0
   -1.3844    0.2493   -0.1103 C   0  0  0  0  0  0  0  0  0  0  0  0
   -2.7980    0.6282   -0.0811 C   0  0  0  0  0  0  0  0  0  0  0  0
   -3.7562    0.0479    0.6277 C   0  0  0  0  0  0  0  0  0  0  0  0
   -0.4495    1.2826   -0.1476 C   0  0  0  0  0  0  0  0  0  0  0  0
    0.9191    1.0715   -0.1332 C   0  0  0  0  0  0  0  0  0  0  0  0
    1.8340    2.2583   -0.1920 C   0  0  0  0  0  0  0  0  0  0  0  0
    4.7680   -0.4177    0.6103 H   0  0  0  0  0  0  0  0  0  0  0  0
    3.5701    0.7923    1.2731 H   0  0  0  0  0  0  0  0  0  0  0  0
    3.0377   -1.5088   -0.6668 H   0  0  0  0  0  0  0  0  0  0  0  0
    0.8145   -2.3010   -0.1723 H   0  0  0  0  0  0  0  0  0  0  0  0
   -1.3522   -3.0755   -0.7257 H   0  0  0  0  0  0  0  0  0  0  0  0
   -2.7666   -2.0095   -0.6928 H   0  0  0  0  0  0  0  0  0  0  0  0
   -2.0683   -2.6117    0.8122 H   0  0  0  0  0  0  0  0  0  0  0  0
   -3.0376    1.5090   -0.6665 H   0  0  0  0  0  0  0  0  0  0  0  0
   -3.5703   -0.7926    1.2728 H   0  0  0  0  0  0  0  0  0  0  0  0
   -4.7680    0.4176    0.6101 H   0  0  0  0  0  0  0  0  0  0  0  0
   -0.8144    2.3011   -0.1720 H   0  0  0  0  0  0  0  0  0  0  0  0
    1.3524    3.0755   -0.7258 H   0  0  0  0  0  0  0  0  0  0  0  0
    2.7667    2.0094   -0.6923 H   0  0  0  0  0  0  0  0  0  0  0  0
    2.0680    2.6119    0.8124 H   0  0  0  0  0  0  0  0  0  0  0  0
  1  2  2  0  0  0  0
  2  3  1  0  0  0  0
  3  4  4  0  0  0  0
  4  5  4  0  0  0  0
  5  6  1  0  0  0  0
  5  7  4  0  0  0  0
  7  8  1  0  0  0  0
  8  9  2  0  0  0  0
  7 10  4  0  0  0  0
  3 11  4  0  0  0  0
 10 11  4  0  0  0  0
 11 12  1  0  0  0  0
  1 13  1  0  0  0  0
  1 14  1  0  0  0  0
  2 15  1  0  0  0  0
  4 16  1  0  0  0  0
  6 17  1  0  0  0  0
  6 18  1  0  0  0  0
  6 19  1  0  0  0  0
  8 20  1  0  0  0  0
  9 21  1  0  0  0  0
  9 22  1  0  0  0  0
 10 23  1  0  0  0  0
 12 24  1  0  0  0  0
 12 25  1  0  0  0  0
 12 26  1  0  0  0  0
M  END
