
 OpenBabel02032211133D

 47 47  0  0  0  0  0  0  0  0999 V2000
    3.9824    0.5066   -0.0250 C   0  0  0  0  0  0  0  0  0  0  0  0
    2.7300    0.0918    0.1990 C   0  0  0  0  0  0  0  0  0  0  0  0
    1.8080   -0.3303   -0.8740 C   0  0  0  0  0  0  0  0  0  0  0  0
    2.0576   -0.4000   -2.2417 C   0  0  0  0  0  0  0  0  0  0  0  0
    0.9480   -0.8313   -3.0041 C   0  0  0  0  0  0  0  0  0  0  0  0
    0.9753   -0.9757   -4.5082 C   0  0  0  0  0  0  0  0  0  0  0  0
    2.3204   -0.6496   -5.1869 C   0  0  0  0  0  0  0  0  0  0  0  0
    2.2809   -0.8495   -6.7158 C   0  0  0  0  0  0  0  0  0  0  0  0
    1.2895    0.0989   -7.4081 C   0  0  0  0  0  0  0  0  0  0  0  0
    1.2776   -0.0819   -8.9293 C   0  0  0  0  0  0  0  0  0  0  0  0
    0.2391    0.8631   -9.5469 C   0  0  0  0  0  0  0  0  0  0  0  0
    0.1451    0.7068  -11.0670 C   0  0  0  0  0  0  0  0  0  0  0  0
   -0.9265    1.6528  -11.6257 C   0  0  0  0  0  0  0  0  0  0  0  0
   -1.0619    1.5151  -13.1441 C   0  0  0  0  0  0  0  0  0  0  0  0
   -2.1380    2.4557  -13.6801 C   0  0  0  0  0  0  0  0  0  0  0  0
   -0.1856   -1.0994   -2.2039 C   0  0  0  0  0  0  0  0  0  0  0  0
   -1.5607   -1.5547   -2.5508 C   0  0  0  0  0  0  0  0  0  0  0  0
   -2.0495   -1.7937   -3.7739 C   0  0  0  0  0  0  0  0  0  0  0  0
    0.2280   -0.8059   -0.6009 S   0  0  0  0  0  0  0  0  0  0  0  0
    4.6040    0.8089    0.8115 H   0  0  0  0  0  0  0  0  0  0  0  0
    4.4015    0.5614   -1.0218 H   0  0  0  0  0  0  0  0  0  0  0  0
    2.3691    0.0688    1.2227 H   0  0  0  0  0  0  0  0  0  0  0  0
    3.0133   -0.1407   -2.6715 H   0  0  0  0  0  0  0  0  0  0  0  0
    0.2051   -0.2822   -4.8955 H   0  0  0  0  0  0  0  0  0  0  0  0
    0.7207   -2.0276   -4.7599 H   0  0  0  0  0  0  0  0  0  0  0  0
    3.0988   -1.3306   -4.7778 H   0  0  0  0  0  0  0  0  0  0  0  0
    2.6130    0.3998   -4.9663 H   0  0  0  0  0  0  0  0  0  0  0  0
    2.0158   -1.9051   -6.9447 H   0  0  0  0  0  0  0  0  0  0  0  0
    3.2997   -0.6527   -7.1158 H   0  0  0  0  0  0  0  0  0  0  0  0
    1.5611    1.1496   -7.1647 H   0  0  0  0  0  0  0  0  0  0  0  0
    0.2626   -0.1042   -7.0436 H   0  0  0  0  0  0  0  0  0  0  0  0
    1.0084   -1.1335   -9.1726 H   0  0  0  0  0  0  0  0  0  0  0  0
    2.2853    0.1378   -9.3452 H   0  0  0  0  0  0  0  0  0  0  0  0
    0.5102    1.9143   -9.3023 H   0  0  0  0  0  0  0  0  0  0  0  0
   -0.7573    0.6403   -9.1045 H   0  0  0  0  0  0  0  0  0  0  0  0
   -0.1267   -0.3434  -11.3130 H   0  0  0  0  0  0  0  0  0  0  0  0
    1.1299    0.9416  -11.5273 H   0  0  0  0  0  0  0  0  0  0  0  0
   -0.6549    2.7023  -11.3753 H   0  0  0  0  0  0  0  0  0  0  0  0
   -1.9049    1.4148  -11.1516 H   0  0  0  0  0  0  0  0  0  0  0  0
   -1.3385    0.4693  -13.4017 H   0  0  0  0  0  0  0  0  0  0  0  0
   -0.0923    1.7595  -13.6302 H   0  0  0  0  0  0  0  0  0  0  0  0
   -3.1217    2.2177  -13.2215 H   0  0  0  0  0  0  0  0  0  0  0  0
   -2.2212    2.3413  -14.7806 H   0  0  0  0  0  0  0  0  0  0  0  0
   -1.8767    3.5115  -13.4500 H   0  0  0  0  0  0  0  0  0  0  0  0
   -2.2432   -1.7028   -1.7189 H   0  0  0  0  0  0  0  0  0  0  0  0
   -1.4888   -1.6822   -4.6849 H   0  0  0  0  0  0  0  0  0  0  0  0
   -3.0793   -2.1183   -3.8764 H   0  0  0  0  0  0  0  0  0  0  0  0
  1  2  2  0  0  0  0
  1 20  1  0  0  0  0
  1 21  1  0  0  0  0
  2  3  1  0  0  0  0
  2 22  1  0  0  0  0
  3  4  2  0  0  0  0
  3 19  1  0  0  0  0
  4  5  1  0  0  0  0
  4 23  1  0  0  0  0
  5  6  1  0  0  0  0
  5 16  2  0  0  0  0
  6  7  1  0  0  0  0
  6 24  1  0  0  0  0
  6 25  1  0  0  0  0
  7  8  1  0  0  0  0
  7 26  1  0  0  0  0
  7 27  1  0  0  0  0
  8  9  1  0  0  0  0
  8 28  1  0  0  0  0
  8 29  1  0  0  0  0
  9 10  1  0  0  0  0
  9 30  1  0  0  0  0
  9 31  1  0  0  0  0
 10 11  1  0  0  0  0
 10 32  1  0  0  0  0
 10 33  1  0  0  0  0
 11 12  1  0  0  0  0
 11 34  1  0  0  0  0
 11 35  1  0  0  0  0
 12 13  1  0  0  0  0
 12 36  1  0  0  0  0
 12 37  1  0  0  0  0
 13 14  1  0  0  0  0
 13 38  1  0  0  0  0
 13 39  1  0  0  0  0
 14 15  1  0  0  0  0
 14 40  1  0  0  0  0
 14 41  1  0  0  0  0
 15 42  1  0  0  0  0
 15 43  1  0  0  0  0
 15 44  1  0  0  0  0
 16 17  1  0  0  0  0
 16 19  1  0  0  0  0
 17 18  2  0  0  0  0
 17 45  1  0  0  0  0
 18 46  1  0  0  0  0
 18 47  1  0  0  0  0
M  END
