
  xtb     02032211353D
 xtb: 6.4.1 (23d549d)
 24 24  0     0  0            999 V2000
   -4.0426    0.3931    0.1241 C   0  0  0  0  0  0  0  0  0  0  0  0
   -3.0493   -0.4834    0.0254 C   0  0  0  0  0  0  0  0  0  0  0  0
   -1.6188   -0.2118   -0.0228 C   0  0  0  0  0  0  0  0  0  0  0  0
   -0.7348   -1.2860   -0.0972 C   0  0  0  0  0  0  0  0  0  0  0  0
    0.6495   -1.1646   -0.1593 C   0  0  0  0  0  0  0  0  0  0  0  0
    1.4425   -2.3903   -0.3318 C   0  0  0  0  0  0  0  0  0  0  0  0
    1.2104   -3.5230    0.3149 C   0  0  0  0  0  0  0  0  0  0  0  0
    1.2141    0.1199   -0.1148 C   0  0  0  0  0  0  0  0  0  0  0  0
    2.5254    0.4625   -0.1208 O   0  0  0  0  0  0  0  0  0  0  0  0
    3.5228   -0.4338    0.3174 C   0  0  0  0  0  0  0  0  0  0  0  0
    0.3359    1.2100   -0.0502 C   0  0  0  0  0  0  0  0  0  0  0  0
    0.8583    2.4497   -0.0152 F   0  0  0  0  0  0  0  0  0  0  0  0
   -1.0381    1.0596   -0.0148 C   0  0  0  0  0  0  0  0  0  0  0  0
   -1.7831    2.1775    0.0381 F   0  0  0  0  0  0  0  0  0  0  0  0
   -5.0657    0.0581    0.1513 H   0  0  0  0  0  0  0  0  0  0  0  0
   -3.8924    1.4554    0.1812 H   0  0  0  0  0  0  0  0  0  0  0  0
   -3.2869   -1.5393   -0.0247 H   0  0  0  0  0  0  0  0  0  0  0  0
   -1.1491   -2.2821   -0.1423 H   0  0  0  0  0  0  0  0  0  0  0  0
    2.2289   -2.3452   -1.0724 H   0  0  0  0  0  0  0  0  0  0  0  0
    0.4454   -3.6013    1.0693 H   0  0  0  0  0  0  0  0  0  0  0  0
    1.7913   -4.4092    0.1271 H   0  0  0  0  0  0  0  0  0  0  0  0
    4.2938    0.1842    0.7803 H   0  0  0  0  0  0  0  0  0  0  0  0
    3.9657   -0.9731   -0.5238 H   0  0  0  0  0  0  0  0  0  0  0  0
    3.1385   -1.1453    1.0502 H   0  0  0  0  0  0  0  0  0  0  0  0
  1  2  2  0  0  0  0
  2  3  1  0  0  0  0
  3  4  4  0  0  0  0
  4  5  4  0  0  0  0
  5  6  1  0  0  0  0
  6  7  2  0  0  0  0
  5  8  4  0  0  0  0
  8  9  1  0  0  0  0
  9 10  1  0  0  0  0
  8 11  4  0  0  0  0
 11 12  1  0  0  0  0
  3 13  4  0  0  0  0
 11 13  4  0  0  0  0
 13 14  1  0  0  0  0
  1 15  1  0  0  0  0
  1 16  1  0  0  0  0
  2 17  1  0  0  0  0
  4 18  1  0  0  0  0
  6 19  1  0  0  0  0
  7 20  1  0  0  0  0
  7 21  1  0  0  0  0
 10 22  1  0  0  0  0
 10 23  1  0  0  0  0
 10 24  1  0  0  0  0
M  END
