
 OpenBabel02012213543D

 80 80  0  0  0  0  0  0  0  0999 V2000
    0.5519    1.8110    4.0116 C   0  0  0  0  0  0  0  0  0  0  0  0
    2.0619    1.8858    4.1590 C   0  0  0  0  0  0  0  0  0  0  0  0
    2.6705    0.4918    4.2794 C   0  0  0  0  0  0  0  0  0  0  0  0
    4.1874    0.5643    4.4295 C   0  0  0  0  0  0  0  0  0  0  0  0
    4.7862   -0.8341    4.5491 C   0  0  0  0  0  0  0  0  0  0  0  0
    6.3022   -0.7666    4.6989 C   0  0  0  0  0  0  0  0  0  0  0  0
    6.8964   -2.1653    4.8198 C   0  0  0  0  0  0  0  0  0  0  0  0
    8.4099   -2.0993    4.9696 C   0  0  0  0  0  0  0  0  0  0  0  0
    9.0058   -3.4956    5.0859 C   0  0  0  0  0  0  0  0  0  0  0  0
   10.5063   -3.4293    5.2345 C   0  0  0  0  0  0  0  0  0  0  0  0
   11.0129   -4.7608    5.3438 O   0  0  0  0  0  0  0  0  0  0  0  0
   12.3751   -4.8403    5.5086 C   0  0  0  0  0  0  0  0  0  0  0  0
   13.2078   -3.7223    5.5372 C   0  0  0  0  0  0  0  0  0  0  0  0
   14.5923   -3.7998    5.7155 C   0  0  0  0  0  0  0  0  0  0  0  0
   15.3070   -2.4757    5.7009 C   0  0  0  0  0  0  0  0  0  0  0  0
   15.1621   -5.0775    5.8940 C   0  0  0  0  0  0  0  0  0  0  0  0
   16.4769   -5.4207    6.0803 O   0  0  0  0  0  0  0  0  0  0  0  0
   17.2786   -4.4744    6.7661 C   0  0  0  0  0  0  0  0  0  0  0  0
   18.3954   -5.1383    7.5624 C   0  0  0  0  0  0  0  0  0  0  0  0
   19.1995   -4.0335    8.2531 C   0  0  0  0  0  0  0  0  0  0  0  0
   20.3381   -4.6000    9.0800 C   0  0  0  0  0  0  0  0  0  0  0  0
   21.1299   -3.4852    9.7582 C   0  0  0  0  0  0  0  0  0  0  0  0
   22.2620   -4.0808   10.5781 C   0  0  0  0  0  0  0  0  0  0  0  0
   23.0778   -2.9974   11.2718 C   0  0  0  0  0  0  0  0  0  0  0  0
   24.2052   -3.6261   12.0861 C   0  0  0  0  0  0  0  0  0  0  0  0
   25.0373   -2.5612   12.7884 C   0  0  0  0  0  0  0  0  0  0  0  0
   26.1572   -3.1930   13.5966 C   0  0  0  0  0  0  0  0  0  0  0  0
   14.3258   -6.2092    5.8530 C   0  0  0  0  0  0  0  0  0  0  0  0
   12.9375   -6.1126    5.6651 C   0  0  0  0  0  0  0  0  0  0  0  0
   12.0857   -7.3452    5.6611 C   0  0  0  0  0  0  0  0  0  0  0  0
    0.1289    2.8160    3.9266 H   0  0  0  0  0  0  0  0  0  0  0  0
    0.0987    1.3217    4.8796 H   0  0  0  0  0  0  0  0  0  0  0  0
    0.2746    1.2465    3.1157 H   0  0  0  0  0  0  0  0  0  0  0  0
    2.3108    2.4794    5.0463 H   0  0  0  0  0  0  0  0  0  0  0  0
    2.4859    2.4043    3.2913 H   0  0  0  0  0  0  0  0  0  0  0  0
    2.4172   -0.0999    3.3912 H   0  0  0  0  0  0  0  0  0  0  0  0
    2.2400   -0.0257    5.1456 H   0  0  0  0  0  0  0  0  0  0  0  0
    4.4443    1.1532    5.3185 H   0  0  0  0  0  0  0  0  0  0  0  0
    4.6214    1.0789    3.5635 H   0  0  0  0  0  0  0  0  0  0  0  0
    4.5294   -1.4233    3.6602 H   0  0  0  0  0  0  0  0  0  0  0  0
    4.3524   -1.3491    5.4151 H   0  0  0  0  0  0  0  0  0  0  0  0
    6.5605   -0.1769    5.5877 H   0  0  0  0  0  0  0  0  0  0  0  0
    6.7369   -0.2535    3.8325 H   0  0  0  0  0  0  0  0  0  0  0  0
    6.6392   -2.7538    3.9292 H   0  0  0  0  0  0  0  0  0  0  0  0
    6.4620   -2.6801    5.6848 H   0  0  0  0  0  0  0  0  0  0  0  0
    8.6683   -1.5106    5.8580 H   0  0  0  0  0  0  0  0  0  0  0  0
    8.8468   -1.5834    4.1035 H   0  0  0  0  0  0  0  0  0  0  0  0
    8.7463   -4.1028    4.2038 H   0  0  0  0  0  0  0  0  0  0  0  0
    8.5799   -4.0212    5.9500 H   0  0  0  0  0  0  0  0  0  0  0  0
   10.7413   -2.8538    6.1434 H   0  0  0  0  0  0  0  0  0  0  0  0
   10.9450   -2.9326    4.3588 H   0  0  0  0  0  0  0  0  0  0  0  0
   12.7825   -2.7210    5.4404 H   0  0  0  0  0  0  0  0  0  0  0  0
   14.6101   -1.6457    5.5351 H   0  0  0  0  0  0  0  0  0  0  0  0
   16.0394   -2.4316    4.8930 H   0  0  0  0  0  0  0  0  0  0  0  0
   15.7694   -2.2660    6.6699 H   0  0  0  0  0  0  0  0  0  0  0  0
   16.6779   -3.9170    7.4864 H   0  0  0  0  0  0  0  0  0  0  0  0
   17.7420   -3.8125    6.0277 H   0  0  0  0  0  0  0  0  0  0  0  0
   19.0367   -5.7350    6.9046 H   0  0  0  0  0  0  0  0  0  0  0  0
   17.9746   -5.8324    8.3014 H   0  0  0  0  0  0  0  0  0  0  0  0
   18.5364   -3.4423    8.8981 H   0  0  0  0  0  0  0  0  0  0  0  0
   19.6017   -3.3453    7.4981 H   0  0  0  0  0  0  0  0  0  0  0  0
   21.0053   -5.1847    8.4350 H   0  0  0  0  0  0  0  0  0  0  0  0
   19.9375   -5.2828    9.8385 H   0  0  0  0  0  0  0  0  0  0  0  0
   20.4648   -2.8966   10.4069 H   0  0  0  0  0  0  0  0  0  0  0  0
   21.5307   -2.7973    9.0034 H   0  0  0  0  0  0  0  0  0  0  0  0
   22.9148   -4.6710    9.9231 H   0  0  0  0  0  0  0  0  0  0  0  0
   21.8497   -4.7682   11.3271 H   0  0  0  0  0  0  0  0  0  0  0  0
   22.4281   -2.4068   11.9289 H   0  0  0  0  0  0  0  0  0  0  0  0
   23.4954   -2.3115   10.5247 H   0  0  0  0  0  0  0  0  0  0  0  0
   24.8468   -4.2218   11.4245 H   0  0  0  0  0  0  0  0  0  0  0  0
   23.7814   -4.3148   12.8278 H   0  0  0  0  0  0  0  0  0  0  0  0
   24.3994   -1.9674   13.4534 H   0  0  0  0  0  0  0  0  0  0  0  0
   25.4656   -1.8743   12.0490 H   0  0  0  0  0  0  0  0  0  0  0  0
   25.7549   -3.8646   14.3621 H   0  0  0  0  0  0  0  0  0  0  0  0
   26.7470   -2.4199   14.0958 H   0  0  0  0  0  0  0  0  0  0  0  0
   26.8264   -3.7708   12.9509 H   0  0  0  0  0  0  0  0  0  0  0  0
   14.7789   -7.1914    6.0002 H   0  0  0  0  0  0  0  0  0  0  0  0
   12.6806   -8.2530    5.8098 H   0  0  0  0  0  0  0  0  0  0  0  0
   11.5653   -7.4408    4.7030 H   0  0  0  0  0  0  0  0  0  0  0  0
   11.3458   -7.2979    6.4682 H   0  0  0  0  0  0  0  0  0  0  0  0
  1  2  1  0  0  0  0
  1 31  1  0  0  0  0
  1 32  1  0  0  0  0
  1 33  1  0  0  0  0
  2  3  1  0  0  0  0
  2 34  1  0  0  0  0
  2 35  1  0  0  0  0
  3  4  1  0  0  0  0
  3 36  1  0  0  0  0
  3 37  1  0  0  0  0
  4  5  1  0  0  0  0
  4 38  1  0  0  0  0
  4 39  1  0  0  0  0
  5  6  1  0  0  0  0
  5 40  1  0  0  0  0
  5 41  1  0  0  0  0
  6  7  1  0  0  0  0
  6 42  1  0  0  0  0
  6 43  1  0  0  0  0
  7  8  1  0  0  0  0
  7 44  1  0  0  0  0
  7 45  1  0  0  0  0
  8  9  1  0  0  0  0
  8 46  1  0  0  0  0
  8 47  1  0  0  0  0
  9 10  1  0  0  0  0
  9 48  1  0  0  0  0
  9 49  1  0  0  0  0
 10 11  1  0  0  0  0
 10 50  1  0  0  0  0
 10 51  1  0  0  0  0
 11 12  1  0  0  0  0
 12 13  1  0  0  0  0
 12 29  2  0  0  0  0
 13 14  2  0  0  0  0
 13 52  1  0  0  0  0
 14 15  1  0  0  0  0
 14 16  1  0  0  0  0
 15 53  1  0  0  0  0
 15 54  1  0  0  0  0
 15 55  1  0  0  0  0
 16 17  1  0  0  0  0
 16 28  2  0  0  0  0
 17 18  1  0  0  0  0
 18 19  1  0  0  0  0
 18 56  1  0  0  0  0
 18 57  1  0  0  0  0
 19 20  1  0  0  0  0
 19 58  1  0  0  0  0
 19 59  1  0  0  0  0
 20 21  1  0  0  0  0
 20 60  1  0  0  0  0
 20 61  1  0  0  0  0
 21 22  1  0  0  0  0
 21 62  1  0  0  0  0
 21 63  1  0  0  0  0
 22 23  1  0  0  0  0
 22 64  1  0  0  0  0
 22 65  1  0  0  0  0
 23 24  1  0  0  0  0
 23 66  1  0  0  0  0
 23 67  1  0  0  0  0
 24 25  1  0  0  0  0
 24 68  1  0  0  0  0
 24 69  1  0  0  0  0
 25 26  1  0  0  0  0
 25 70  1  0  0  0  0
 25 71  1  0  0  0  0
 26 27  1  0  0  0  0
 26 72  1  0  0  0  0
 26 73  1  0  0  0  0
 27 74  1  0  0  0  0
 27 75  1  0  0  0  0
 27 76  1  0  0  0  0
 28 29  1  0  0  0  0
 28 77  1  0  0  0  0
 29 30  1  0  0  0  0
 30 78  1  0  0  0  0
 30 79  1  0  0  0  0
 30 80  1  0  0  0  0
M  END
