
 OpenBabel08122213043D

 23 23  0  0  0  0  0  0  0  0999 V2000
    1.1919    0.1684    0.6297 C   0  0  0  0  0  0  0  0  0  0  0  0
    2.3964   -0.0158    0.0717 C   0  0  0  0  0  0  0  0  0  0  0  0
    3.1669   -1.2785    0.1008 C   0  0  0  0  0  0  0  0  0  0  0  0
    2.4704   -2.4983    0.0781 C   0  0  0  0  0  0  0  0  0  0  0  0
    3.1465   -3.7104    0.0872 C   0  0  0  0  0  0  0  0  0  0  0  0
    4.5374   -3.7288    0.1047 C   0  0  0  0  0  0  0  0  0  0  0  0
    5.2844   -2.5372    0.0893 C   0  0  0  0  0  0  0  0  0  0  0  0
    6.7582   -2.6270    0.1431 C   0  0  0  0  0  0  0  0  0  0  0  0
    7.5288   -3.5625   -0.4246 C   0  0  0  0  0  0  0  0  0  0  0  0
    7.0034   -4.5725   -1.1506 F   0  0  0  0  0  0  0  0  0  0  0  0
    8.8669   -3.4932   -0.2644 F   0  0  0  0  0  0  0  0  0  0  0  0
    4.5932   -1.2928    0.0946 C   0  0  0  0  0  0  0  0  0  0  0  0
    5.3322    0.0297    0.0911 C   0  0  0  0  0  0  0  0  0  0  0  0
    0.6974    1.1349    0.5544 H   0  0  0  0  0  0  0  0  0  0  0  0
    0.6711   -0.6045    1.1790 H   0  0  0  0  0  0  0  0  0  0  0  0
    2.8515    0.8219   -0.4501 H   0  0  0  0  0  0  0  0  0  0  0  0
    1.3842   -2.5170    0.0446 H   0  0  0  0  0  0  0  0  0  0  0  0
    2.5906   -4.6443    0.0814 H   0  0  0  0  0  0  0  0  0  0  0  0
    5.0290   -4.6975    0.1332 H   0  0  0  0  0  0  0  0  0  0  0  0
    7.2707   -1.8603    0.7143 H   0  0  0  0  0  0  0  0  0  0  0  0
    6.4193   -0.0677    0.0828 H   0  0  0  0  0  0  0  0  0  0  0  0
    5.0698    0.6068    0.9831 H   0  0  0  0  0  0  0  0  0  0  0  0
    5.0759    0.6027   -0.8054 H   0  0  0  0  0  0  0  0  0  0  0  0
  1  2  2  0  0  0  0
  1 14  1  0  0  0  0
  1 15  1  0  0  0  0
  2  3  1  0  0  0  0
  2 16  1  0  0  0  0
  3  4  1  0  0  0  0
  3 12  2  0  0  0  0
  4  5  2  0  0  0  0
  4 17  1  0  0  0  0
  5  6  1  0  0  0  0
  5 18  1  0  0  0  0
  6  7  2  0  0  0  0
  6 19  1  0  0  0  0
  7  8  1  0  0  0  0
  7 12  1  0  0  0  0
  8  9  2  0  0  0  0
  8 20  1  0  0  0  0
  9 10  1  0  0  0  0
  9 11  1  0  0  0  0
 12 13  1  0  0  0  0
 13 21  1  0  0  0  0
 13 22  1  0  0  0  0
 13 23  1  0  0  0  0
M  END
