37

O          1.03930       -0.12140        0.03930
C          2.26140       -0.09590       -0.00270
C          2.93270        1.12830       -0.09630
C          2.20220        2.33550       -0.14830
C          2.85530        3.55740       -0.26660
C          4.24050        3.59750       -0.34580
C          4.98310        2.41820       -0.29470
C          4.35380        1.15010       -0.15140
N          5.07650       -0.03660       -0.10000
C          6.53290       -0.00490       -0.15320
C          7.29905       -0.99201        0.49717
C          8.69549       -0.95601        0.45389
C          9.35528        0.06609       -0.24384
C         10.85368        0.11850       -0.29644
C          8.60172        1.05001       -0.89738
C          7.20525        1.01662       -0.85180
C          4.40910       -1.25270       -0.00110
C          2.98830       -1.29040        0.04220
C          2.31430       -2.52700        0.14140
C          3.02430       -3.72050        0.21140
C          4.41240       -3.70240        0.19470
C          5.10000       -2.49290        0.09500
H          1.11990        2.33840       -0.10300
H          2.28400        4.47590       -0.30800
H          4.74520        4.54950       -0.45160
H          6.05060        2.53220       -0.38190
H          6.80952       -1.79336        1.03656
H          9.25967       -1.72637        0.96489
H         11.31144       -0.72005        0.27031
H         11.20877        1.07419        0.14371
H         11.19297        0.05641       -1.35179
H          9.09669        1.84618       -1.44000
H          6.64308        1.79279       -1.35558
H          1.23220       -2.57520        0.17040
H          2.49580       -4.66200        0.28940
H          4.96210       -4.63260        0.26290
H          6.17510       -2.56060        0.10720
37

O          1.03930       -0.12140        0.03930
C          2.26140       -0.09590       -0.00270
C          2.93270        1.12830       -0.09630
C          2.20220        2.33550       -0.14830
C          2.85530        3.55740       -0.26660
C          4.24050        3.59750       -0.34580
C          4.98310        2.41820       -0.29470
C          4.35380        1.15010       -0.15140
N          5.07650       -0.03660       -0.10000
C          6.53290       -0.00490       -0.15320
C          7.24818        1.09909        0.35071
C          8.64406        1.13337        0.29098
C          9.35437        0.06253       -0.27078
C         10.85263        0.08710       -0.34373
C          8.65187       -1.04181       -0.77079
C          7.25580       -1.07540       -0.71449
C          4.40910       -1.25270       -0.00110
C          2.98830       -1.29040        0.04220
C          2.31430       -2.52700        0.14140
C          3.02430       -3.72050        0.21140
C          4.41240       -3.70240        0.19470
C          5.10000       -2.49290        0.09500
H          1.11990        2.33840       -0.10300
H          2.28400        4.47590       -0.30800
H          4.74520        4.54950       -0.45160
H          6.05060        2.53220       -0.38190
H          6.71953        1.93384        0.79396
H          9.16839        1.99575        0.68375
H         11.26666        1.02487        0.08416
H         11.17534        0.01303       -1.40370
H         11.26854       -0.77200        0.22346
H          9.18619       -1.87640       -1.20815
H          6.73296       -1.93432       -1.11595
H          1.23220       -2.57520        0.17040
H          2.49580       -4.66200        0.28940
H          4.96210       -4.63260        0.26290
H          6.17510       -2.56060        0.10720
