21

C          0.78410       -0.04550       -0.07820
C          2.27540        0.06140       -0.07720
S          3.11570        1.52910       -0.07560
C          3.18860       -1.00450       -0.07740
C          2.80100       -2.45640       -0.07890
C          4.52340       -0.55700       -0.07620
C          4.63860        0.82720       -0.07530
C          5.87460        1.46940       -0.07420
C          7.03320        0.67930       -0.07420
C          6.93570       -0.72480       -0.07510
C          5.67790       -1.35170       -0.07620
H          0.32530        0.96540       -0.07780
H          0.44690       -0.59090        0.82780
H          0.44810       -0.58960       -0.98540
H          1.70010       -2.58910       -0.07980
H          3.21130       -2.95170        0.82580
H          3.21250       -2.95000       -0.98390
H          5.94050        2.54950       -0.07350
H          8.00680        1.15210       -0.07340
H          7.83580       -1.32570       -0.07500
H          5.61480       -2.43220       -0.07690
