21

C          2.33298       -0.68901       -1.18941
O          2.46700       -0.06420        0.03210
C          3.15640        1.08790        0.21960
N          2.78790        1.96400        1.19710
C          3.45400        3.12740        1.41510
C          4.56000        3.46300        0.62450
C          5.31110        4.74200        0.84730
C          4.95990        2.58100       -0.38670
C          4.26090        1.38340       -0.59900
C          4.68660        0.43340       -1.68270
H          1.72567       -1.60866       -1.06369
H          3.33149       -0.97114       -1.58696
H          1.81878       -0.01622       -1.90884
H          3.11920        3.78760        2.20470
H          4.87350        5.33070        1.68150
H          5.27770        5.35990       -0.07460
H          6.36940        4.51460        1.09470
H          5.81440        2.82940       -1.00550
H          5.57210        0.81380       -2.23510
H          3.85600        0.29530       -2.40650
H          4.94850       -0.54920       -1.23680
21

C          3.03192       -1.22888       -0.44206
O          2.46700       -0.06420        0.03210
C          3.15640        1.08790        0.21960
N          2.78790        1.96400        1.19710
C          3.45400        3.12740        1.41510
C          4.56000        3.46300        0.62450
C          5.31110        4.74200        0.84730
C          4.95990        2.58100       -0.38670
C          4.26090        1.38340       -0.59900
C          4.68660        0.43340       -1.68270
H          2.25197       -2.01556       -0.49859
H          3.83644       -1.57123        0.24367
H          3.44945       -1.06525       -1.45868
H          3.11920        3.78760        2.20470
H          4.87350        5.33070        1.68150
H          5.27770        5.35990       -0.07460
H          6.36940        4.51460        1.09470
H          5.81440        2.82940       -1.00550
H          5.57210        0.81380       -2.23510
H          3.85600        0.29530       -2.40650
H          4.94850       -0.54920       -1.23680
21

C          2.78719       -1.00394       -0.92435
O          2.46700       -0.06420        0.03210
C          3.15640        1.08790        0.21960
N          2.78790        1.96400        1.19710
C          3.45400        3.12740        1.41510
C          4.56000        3.46300        0.62450
C          5.31110        4.74200        0.84730
C          4.95990        2.58100       -0.38670
C          4.26090        1.38340       -0.59900
C          4.68660        0.43340       -1.68270
H          2.06796       -1.84616       -0.86293
H          3.81225       -1.39522       -0.74887
H          2.72552       -0.55398       -1.93844
H          3.11920        3.78760        2.20470
H          4.87350        5.33070        1.68150
H          5.27770        5.35990       -0.07460
H          6.36940        4.51460        1.09470
H          5.81440        2.82940       -1.00550
H          5.57210        0.81380       -2.23510
H          3.85600        0.29530       -2.40650
H          4.94850       -0.54920       -1.23680
21

C          1.80809       -0.73752        1.03854
O          2.46700       -0.06420        0.03210
C          3.15640        1.08790        0.21960
N          2.78790        1.96400        1.19710
C          3.45400        3.12740        1.41510
C          4.56000        3.46300        0.62450
C          5.31110        4.74200        0.84730
C          4.95990        2.58100       -0.38670
C          4.26090        1.38340       -0.59900
C          4.68660        0.43340       -1.68270
H          1.32693       -1.64352        0.61661
H          1.02264       -0.08915        1.48277
H          2.52795       -1.04837        1.82582
H          3.11920        3.78760        2.20470
H          4.87350        5.33070        1.68150
H          5.27770        5.35990       -0.07460
H          6.36940        4.51460        1.09470
H          5.81440        2.82940       -1.00550
H          5.57210        0.81380       -2.23510
H          3.85600        0.29530       -2.40650
H          4.94850       -0.54920       -1.23680
21

C          1.37406       -0.43657        0.78526
O          2.46700       -0.06420        0.03210
C          3.15640        1.08790        0.21960
N          2.78790        1.96400        1.19710
C          3.45400        3.12740        1.41510
C          4.56000        3.46300        0.62450
C          5.31110        4.74200        0.84730
C          4.95990        2.58100       -0.38670
C          4.26090        1.38340       -0.59900
C          4.68660        0.43340       -1.68270
H          0.99983       -1.41657        0.42477
H          0.56322        0.31610        0.68189
H          1.66148       -0.53449        1.85410
H          3.11920        3.78760        2.20470
H          4.87350        5.33070        1.68150
H          5.27770        5.35990       -0.07460
H          6.36940        4.51460        1.09470
H          5.81440        2.82940       -1.00550
H          5.57210        0.81380       -2.23510
H          3.85600        0.29530       -2.40650
H          4.94850       -0.54920       -1.23680
21

C          1.12391       -0.20905        0.30696
O          2.46700       -0.06420        0.03210
C          3.15640        1.08790        0.21960
N          2.78790        1.96400        1.19710
C          3.45400        3.12740        1.41510
C          4.56000        3.46300        0.62450
C          5.31110        4.74200        0.84730
C          4.95990        2.58100       -0.38670
C          4.26090        1.38340       -0.59900
C          4.68660        0.43340       -1.68270
H          0.81173       -1.24521        0.06345
H          0.52834        0.49827       -0.30921
H          0.93171       -0.02149        1.38516
H          3.11920        3.78760        2.20470
H          4.87350        5.33070        1.68150
H          5.27770        5.35990       -0.07460
H          6.36940        4.51460        1.09470
H          5.81440        2.82940       -1.00550
H          5.57210        0.81380       -2.23510
H          3.85600        0.29530       -2.40650
H          4.94850       -0.54920       -1.23680
