
 OpenBabel02012214093D

 21 21  0  0  0  0  0  0  0  0999 V2000
    1.3772   -0.4390    0.7886 C   0  0  0  0  0  0  0  0  0  0  0  0
    2.4670   -0.0642    0.0321 O   0  0  0  0  0  0  0  0  0  0  0  0
    3.1564    1.0879    0.2196 C   0  0  0  0  0  0  0  0  0  0  0  0
    2.7879    1.9640    1.1971 N   0  0  0  0  0  0  0  0  0  0  0  0
    3.4540    3.1274    1.4151 C   0  0  0  0  0  0  0  0  0  0  0  0
    4.5600    3.4630    0.6245 C   0  0  0  0  0  0  0  0  0  0  0  0
    5.3111    4.7420    0.8473 C   0  0  0  0  0  0  0  0  0  0  0  0
    4.9599    2.5810   -0.3867 C   0  0  0  0  0  0  0  0  0  0  0  0
    4.2609    1.3834   -0.5990 C   0  0  0  0  0  0  0  0  0  0  0  0
    4.6866    0.4334   -1.6827 C   0  0  0  0  0  0  0  0  0  0  0  0
    1.0022   -1.4184    0.4273 H   0  0  0  0  0  0  0  0  0  0  0  0
    0.5655    0.3134    0.6901 H   0  0  0  0  0  0  0  0  0  0  0  0
    1.6688   -0.5392    1.8561 H   0  0  0  0  0  0  0  0  0  0  0  0
    3.1192    3.7876    2.2047 H   0  0  0  0  0  0  0  0  0  0  0  0
    4.8735    5.3307    1.6815 H   0  0  0  0  0  0  0  0  0  0  0  0
    5.2777    5.3599   -0.0746 H   0  0  0  0  0  0  0  0  0  0  0  0
    6.3694    4.5146    1.0947 H   0  0  0  0  0  0  0  0  0  0  0  0
    5.8144    2.8294   -1.0055 H   0  0  0  0  0  0  0  0  0  0  0  0
    5.5721    0.8138   -2.2351 H   0  0  0  0  0  0  0  0  0  0  0  0
    3.8560    0.2953   -2.4065 H   0  0  0  0  0  0  0  0  0  0  0  0
    4.9485   -0.5492   -1.2368 H   0  0  0  0  0  0  0  0  0  0  0  0
  1  2  1  0  0  0  0
  1 11  1  0  0  0  0
  1 12  1  0  0  0  0
  1 13  1  0  0  0  0
  2  3  1  0  0  0  0
  3  4  1  0  0  0  0
  3  9  2  0  0  0  0
  4  5  2  0  0  0  0
  5  6  1  0  0  0  0
  5 14  1  0  0  0  0
  6  7  1  0  0  0  0
  6  8  2  0  0  0  0
  7 15  1  0  0  0  0
  7 16  1  0  0  0  0
  7 17  1  0  0  0  0
  8  9  1  0  0  0  0
  8 18  1  0  0  0  0
  9 10  1  0  0  0  0
 10 19  1  0  0  0  0
 10 20  1  0  0  0  0
 10 21  1  0  0  0  0
M  END
