
 OpenBabel02012214143D

 39 41  0  0  0  0  0  0  0  0999 V2000
    0.6669    1.4154   -1.9516 C   0  0  0  0  0  0  0  0  0  0  0  0
    0.3022    0.4740   -0.8408 C   0  0  0  0  0  0  0  0  0  0  0  0
   -0.1200    0.9629    0.4001 C   0  0  0  0  0  0  0  0  0  0  0  0
   -0.4441    0.0771    1.4346 C   0  0  0  0  0  0  0  0  0  0  0  0
   -0.9074    0.5937    2.7657 C   0  0  0  0  0  0  0  0  0  0  0  0
   -0.3366   -1.3058    1.2257 C   0  0  0  0  0  0  0  0  0  0  0  0
    0.0816   -1.8271   -0.0191 C   0  0  0  0  0  0  0  0  0  0  0  0
    0.1982   -3.2505   -0.2356 N   0  0  0  0  0  0  0  0  0  0  0  0
    0.0559   -3.8495   -1.5624 C   0  0  0  0  0  0  0  0  0  0  0  0
   -1.0777   -4.8877   -1.5261 C   0  0  0  0  0  0  0  0  0  0  0  0
   -0.8139   -5.9398   -0.4299 C   0  0  0  0  0  0  0  0  0  0  0  0
   -0.6587   -5.2286    0.9306 C   0  0  0  0  0  0  0  0  0  0  0  0
    0.4636   -4.1872    0.8562 C   0  0  0  0  0  0  0  0  0  0  0  0
    0.3788   -6.6497   -0.7378 O   0  0  0  0  0  0  0  0  0  0  0  0
    0.0284   -7.9853   -0.5818 C   0  0  0  0  0  0  0  0  0  0  0  0
   -1.4197   -8.0102   -0.9266 C   0  0  0  0  0  0  0  0  0  0  0  0
   -1.9112   -6.8371   -0.3638 O   0  0  0  0  0  0  0  0  0  0  0  0
    0.3947   -0.9091   -1.0476 C   0  0  0  0  0  0  0  0  0  0  0  0
    0.5517    2.4766   -1.6441 H   0  0  0  0  0  0  0  0  0  0  0  0
    0.0133    1.2299   -2.8297 H   0  0  0  0  0  0  0  0  0  0  0  0
    1.7252    1.2502   -2.2457 H   0  0  0  0  0  0  0  0  0  0  0  0
   -0.1961    2.0318    0.5613 H   0  0  0  0  0  0  0  0  0  0  0  0
   -0.9428    1.7039    2.7843 H   0  0  0  0  0  0  0  0  0  0  0  0
   -0.2137    0.2512    3.5620 H   0  0  0  0  0  0  0  0  0  0  0  0
   -1.9263    0.2080    2.9803 H   0  0  0  0  0  0  0  0  0  0  0  0
   -0.6087   -1.9576    2.0427 H   0  0  0  0  0  0  0  0  0  0  0  0
    1.0099   -4.3428   -1.8490 H   0  0  0  0  0  0  0  0  0  0  0  0
   -0.2034   -3.1133   -2.3464 H   0  0  0  0  0  0  0  0  0  0  0  0
   -1.1725   -5.3800   -2.5180 H   0  0  0  0  0  0  0  0  0  0  0  0
   -2.0351   -4.3645   -1.3054 H   0  0  0  0  0  0  0  0  0  0  0  0
   -0.4345   -5.9701    1.7278 H   0  0  0  0  0  0  0  0  0  0  0  0
   -1.6087   -4.7122    1.1918 H   0  0  0  0  0  0  0  0  0  0  0  0
    1.4269   -4.7046    0.6539 H   0  0  0  0  0  0  0  0  0  0  0  0
    0.5878   -3.6933    1.8375 H   0  0  0  0  0  0  0  0  0  0  0  0
    0.1827   -8.2637    0.4853 H   0  0  0  0  0  0  0  0  0  0  0  0
    0.6141   -8.6603   -1.2410 H   0  0  0  0  0  0  0  0  0  0  0  0
   -1.9152   -8.9195   -0.5257 H   0  0  0  0  0  0  0  0  0  0  0  0
   -1.5599   -7.9542   -2.0301 H   0  0  0  0  0  0  0  0  0  0  0  0
    0.7433   -1.2471   -2.0124 H   0  0  0  0  0  0  0  0  0  0  0  0
  1  2  1  0  0  0  0
  1 19  1  0  0  0  0
  1 20  1  0  0  0  0
  1 21  1  0  0  0  0
  2  3  1  0  0  0  0
  2 18  2  0  0  0  0
  3  4  2  0  0  0  0
  3 22  1  0  0  0  0
  4  5  1  0  0  0  0
  4  6  1  0  0  0  0
  5 23  1  0  0  0  0
  5 24  1  0  0  0  0
  5 25  1  0  0  0  0
  6  7  2  0  0  0  0
  6 26  1  0  0  0  0
  7  8  1  0  0  0  0
  7 18  1  0  0  0  0
  8  9  1  0  0  0  0
  8 13  1  0  0  0  0
  9 10  1  0  0  0  0
  9 27  1  0  0  0  0
  9 28  1  0  0  0  0
 10 11  1  0  0  0  0
 10 29  1  0  0  0  0
 10 30  1  0  0  0  0
 11 12  1  0  0  0  0
 11 14  1  0  0  0  0
 11 17  1  0  0  0  0
 12 13  1  0  0  0  0
 12 31  1  0  0  0  0
 12 32  1  0  0  0  0
 13 33  1  0  0  0  0
 13 34  1  0  0  0  0
 14 15  1  0  0  0  0
 15 16  1  0  0  0  0
 15 35  1  0  0  0  0
 15 36  1  0  0  0  0
 16 17  1  0  0  0  0
 16 37  1  0  0  0  0
 16 38  1  0  0  0  0
 18 39  1  0  0  0  0
M  END
