
  xtb     02012214143D
 xtb: 6.4.1 (23d549d)
 39 41  0     0  0            999 V2000
    0.3394    1.3302   -1.9635 c   0  0  0  0  0  0  0  0  0  0  0  0
    0.1630    0.3268   -0.8620 c   0  0  0  0  0  0  0  0  0  0  0  0
   -0.4461    0.6911    0.3319 c   0  0  0  0  0  0  0  0  0  0  0  0
   -0.6081   -0.2395    1.3446 c   0  0  0  0  0  0  0  0  0  0  0  0
   -1.2632    0.1369    2.6415 c   0  0  0  0  0  0  0  0  0  0  0  0
   -0.1763   -1.5441    1.1529 c   0  0  0  0  0  0  0  0  0  0  0  0
    0.4281   -1.9447   -0.0395 c   0  0  0  0  0  0  0  0  0  0  0  0
    0.9367   -3.2272   -0.2326 n   0  0  0  0  0  0  0  0  0  0  0  0
    0.7384   -3.8905   -1.5022 c   0  0  0  0  0  0  0  0  0  0  0  0
   -0.6133   -4.6145   -1.5460 c   0  0  0  0  0  0  0  0  0  0  0  0
   -0.7062   -5.6336   -0.4020 c   0  0  0  0  0  0  0  0  0  0  0  0
   -0.4219   -4.9369    0.9354 c   0  0  0  0  0  0  0  0  0  0  0  0
    0.9140   -4.1901    0.8432 c   0  0  0  0  0  0  0  0  0  0  0  0
    0.2247   -6.6810   -0.6432 o   0  0  0  0  0  0  0  0  0  0  0  0
   -0.4417   -7.9105   -0.4801 c   0  0  0  0  0  0  0  0  0  0  0  0
   -1.8942   -7.5549   -0.8021 c   0  0  0  0  0  0  0  0  0  0  0  0
   -1.9969   -6.2263   -0.3452 o   0  0  0  0  0  0  0  0  0  0  0  0
    0.5973   -0.9749   -1.0339 c   0  0  0  0  0  0  0  0  0  0  0  0
    0.3814    2.3408   -1.5643 h   0  0  0  0  0  0  0  0  0  0  0  0
   -0.5013    1.2754   -2.6561 h   0  0  0  0  0  0  0  0  0  0  0  0
    1.2503    1.1346   -2.5250 h   0  0  0  0  0  0  0  0  0  0  0  0
   -0.7883    1.7066    0.4718 h   0  0  0  0  0  0  0  0  0  0  0  0
   -1.4485    1.2071    2.6871 h   0  0  0  0  0  0  0  0  0  0  0  0
   -0.6333   -0.1445    3.4843 h   0  0  0  0  0  0  0  0  0  0  0  0
   -2.2155   -0.3824    2.7494 h   0  0  0  0  0  0  0  0  0  0  0  0
   -0.3294   -2.2446    1.9583 h   0  0  0  0  0  0  0  0  0  0  0  0
    1.5370   -4.6280   -1.6294 h   0  0  0  0  0  0  0  0  0  0  0  0
    0.7907   -3.1749   -2.3202 h   0  0  0  0  0  0  0  0  0  0  0  0
   -0.7311   -5.1337   -2.4979 h   0  0  0  0  0  0  0  0  0  0  0  0
   -1.4281   -3.8984   -1.4295 h   0  0  0  0  0  0  0  0  0  0  0  0
   -0.3877   -5.6837    1.7296 h   0  0  0  0  0  0  0  0  0  0  0  0
   -1.2446   -4.2502    1.1337 h   0  0  0  0  0  0  0  0  0  0  0  0
    1.7000   -4.9243    0.6348 h   0  0  0  0  0  0  0  0  0  0  0  0
    1.1525   -3.6968    1.7855 h   0  0  0  0  0  0  0  0  0  0  0  0
   -0.3456   -8.2668    0.5550 h   0  0  0  0  0  0  0  0  0  0  0  0
   -0.0009   -8.6359   -1.1637 h   0  0  0  0  0  0  0  0  0  0  0  0
   -2.6271   -8.1608   -0.2699 h   0  0  0  0  0  0  0  0  0  0  0  0
   -2.0814   -7.6062   -1.8835 h   0  0  0  0  0  0  0  0  0  0  0  0
    1.0990   -1.2292   -1.9552 h   0  0  0  0  0  0  0  0  0  0  0  0
  1  2  1  0  0  0  0
  2  3  4  0  0  0  0
  3  4  4  0  0  0  0
  4  5  1  0  0  0  0
  4  6  4  0  0  0  0
  6  7  4  0  0  0  0
  7  8  1  0  0  0  0
  8  9  1  0  0  0  0
  9 10  1  0  0  0  0
 10 11  1  0  0  0  0
 11 12  1  0  0  0  0
  8 13  1  0  0  0  0
 12 13  1  0  0  0  0
 11 14  1  0  0  0  0
 14 15  1  0  0  0  0
 15 16  1  0  0  0  0
 11 17  1  0  0  0  0
 16 17  1  0  0  0  0
  2 18  4  0  0  0  0
  7 18  4  0  0  0  0
  1 19  1  0  0  0  0
  1 20  1  0  0  0  0
  1 21  1  0  0  0  0
  3 22  1  0  0  0  0
  5 23  1  0  0  0  0
  5 24  1  0  0  0  0
  5 25  1  0  0  0  0
  6 26  1  0  0  0  0
  9 27  1  0  0  0  0
  9 28  1  0  0  0  0
 10 29  1  0  0  0  0
 10 30  1  0  0  0  0
 12 31  1  0  0  0  0
 12 32  1  0  0  0  0
 13 33  1  0  0  0  0
 13 34  1  0  0  0  0
 15 35  1  0  0  0  0
 15 36  1  0  0  0  0
 16 37  1  0  0  0  0
 16 38  1  0  0  0  0
 18 39  1  0  0  0  0
M  END
