22

C          2.48393        1.21975       -0.67501
C          2.14420        0.04410       -0.12430
C          3.02050       -1.17610       -0.07120
C          2.45420       -2.47210       -0.08360
C          3.25900       -3.61540       -0.03420
C          2.65980       -4.99170       -0.04620
C          4.64060       -3.46200        0.02720
N          5.18520       -2.22260        0.03930
C          4.44370       -1.07910       -0.00620
C          5.17820        0.22050        0.01050
C          4.64945        1.33546        0.53133
H          1.77251        2.03974       -0.65807
H          3.43846        1.41277       -1.14252
H          1.15427        0.02013        0.30407
H          1.38740       -2.61830       -0.12940
H          1.55080       -4.95540       -0.09630
H          2.95130       -5.53330        0.87830
H          3.03240       -5.55310       -0.92880
H          5.28900       -4.32820        0.06600
H          6.17278        0.31642       -0.39783
H          3.65662        1.35108        0.96925
H          5.22018        2.25883        0.52304
22

C          2.43312        1.23137        0.43046
C          2.14420        0.04410       -0.12430
C          3.02050       -1.17610       -0.07120
C          2.45420       -2.47210       -0.08360
C          3.25900       -3.61540       -0.03420
C          2.65980       -4.99170       -0.04620
C          4.64060       -3.46200        0.02720
N          5.18520       -2.22260        0.03930
C          4.44370       -1.07910       -0.00620
C          5.17820        0.22050        0.01050
C          4.70156        1.32039       -0.58703
H          1.72632        2.04967        0.33252
H          3.33929        1.43403        0.98250
H          1.19580        0.00898       -0.63748
H          1.38740       -2.61830       -0.12940
H          1.55080       -4.95540       -0.09630
H          2.95130       -5.53330        0.87830
H          3.03240       -5.55310       -0.92880
H          5.28900       -4.32820        0.06600
H          6.12943        0.32927        0.50895
H          3.75381        1.32294       -1.11571
H          5.26919        2.24490       -0.54876
22

C          1.64719        0.68922        0.94230
C          2.14420        0.04410       -0.12430
C          3.02050       -1.17610       -0.07120
C          2.45420       -2.47210       -0.08360
C          3.25900       -3.61540       -0.03420
C          2.65980       -4.99170       -0.04620
C          4.64060       -3.46200        0.02720
N          5.18520       -2.22260        0.03930
C          4.44370       -1.07910       -0.00620
C          5.17820        0.22050        0.01050
C          5.48400        0.85585        1.14927
H          1.02175        1.56360        0.79049
H          1.82780        0.39129        1.96484
H          1.86438        0.47008       -1.07524
H          1.38740       -2.61830       -0.12940
H          1.55080       -4.95540       -0.09630
H          2.95130       -5.53330        0.87830
H          3.03240       -5.55310       -0.92880
H          5.28900       -4.32820        0.06600
H          5.49669        0.70499       -0.89998
H          5.21244        0.45697        2.12131
H          6.02046        1.79893        1.11431
22

C          2.48393        1.21975       -0.67501
C          2.14420        0.04410       -0.12430
C          3.02050       -1.17610       -0.07120
C          2.45420       -2.47210       -0.08360
C          3.25900       -3.61540       -0.03420
C          2.65980       -4.99170       -0.04620
C          4.64060       -3.46200        0.02720
N          5.18520       -2.22260        0.03930
C          4.44370       -1.07910       -0.00620
C          5.17820        0.22050        0.01050
C          5.58934        0.82537       -1.11159
H          1.77251        2.03974       -0.65807
H          3.43846        1.41277       -1.14252
H          1.15427        0.02013        0.30407
H          1.38740       -2.61830       -0.12940
H          1.55080       -4.95540       -0.09630
H          2.95130       -5.53330        0.87830
H          3.03240       -5.55310       -0.92880
H          5.28900       -4.32820        0.06600
H          5.40906        0.73096        0.93314
H          5.40892        0.40008       -2.09358
H          6.11954        1.77078       -1.05240
22

C          1.74773        0.66622       -1.24529
C          2.14420        0.04410       -0.12430
C          3.02050       -1.17610       -0.07120
C          2.45420       -2.47210       -0.08360
C          3.25900       -3.61540       -0.03420
C          2.65980       -4.99170       -0.04620
C          4.64060       -3.46200        0.02720
N          5.18520       -2.22260        0.03930
C          4.44370       -1.07910       -0.00620
C          5.17820        0.22050        0.01050
C          5.48400        0.85585        1.14927
H          1.11315        1.54394       -1.16979
H          2.02405        0.34922       -2.24033
H          1.78219        0.49214        0.78798
H          1.38740       -2.61830       -0.12940
H          1.55080       -4.95540       -0.09630
H          2.95130       -5.53330        0.87830
H          3.03240       -5.55310       -0.92880
H          5.28900       -4.32820        0.06600
H          5.49669        0.70499       -0.89998
H          5.21244        0.45697        2.12131
H          6.02046        1.79893        1.11431
22

C          1.64719        0.68922        0.94230
C          2.14420        0.04410       -0.12430
C          3.02050       -1.17610       -0.07120
C          2.45420       -2.47210       -0.08360
C          3.25900       -3.61540       -0.03420
C          2.65980       -4.99170       -0.04620
C          4.64060       -3.46200        0.02720
N          5.18520       -2.22260        0.03930
C          4.44370       -1.07910       -0.00620
C          5.17820        0.22050        0.01050
C          5.58934        0.82537       -1.11159
H          1.02175        1.56360        0.79049
H          1.82780        0.39129        1.96484
H          1.86438        0.47008       -1.07524
H          1.38740       -2.61830       -0.12940
H          1.55080       -4.95540       -0.09630
H          2.95130       -5.53330        0.87830
H          3.03240       -5.55310       -0.92880
H          5.28900       -4.32820        0.06600
H          5.40906        0.73096        0.93314
H          5.40892        0.40008       -2.09358
H          6.11954        1.77078       -1.05240
22

C          2.43312        1.23137        0.43046
C          2.14420        0.04410       -0.12430
C          3.02050       -1.17610       -0.07120
C          2.45420       -2.47210       -0.08360
C          3.25900       -3.61540       -0.03420
C          2.65980       -4.99170       -0.04620
C          4.64060       -3.46200        0.02720
N          5.18520       -2.22260        0.03930
C          4.44370       -1.07910       -0.00620
C          5.17820        0.22050        0.01050
C          5.58934        0.82537       -1.11159
H          1.72632        2.04967        0.33252
H          3.33929        1.43403        0.98250
H          1.19580        0.00898       -0.63748
H          1.38740       -2.61830       -0.12940
H          1.55080       -4.95540       -0.09630
H          2.95130       -5.53330        0.87830
H          3.03240       -5.55310       -0.92880
H          5.28900       -4.32820        0.06600
H          5.40906        0.73096        0.93314
H          5.40892        0.40008       -2.09358
H          6.11954        1.77078       -1.05240
22

C          1.74773        0.66622       -1.24529
C          2.14420        0.04410       -0.12430
C          3.02050       -1.17610       -0.07120
C          2.45420       -2.47210       -0.08360
C          3.25900       -3.61540       -0.03420
C          2.65980       -4.99170       -0.04620
C          4.64060       -3.46200        0.02720
N          5.18520       -2.22260        0.03930
C          4.44370       -1.07910       -0.00620
C          5.17820        0.22050        0.01050
C          6.35304        0.37129        0.63579
H          1.11315        1.54394       -1.16979
H          2.02405        0.34922       -2.24033
H          1.78219        0.49214        0.78798
H          1.38740       -2.61830       -0.12940
H          1.55080       -4.95540       -0.09630
H          2.95130       -5.53330        0.87830
H          3.03240       -5.55310       -0.92880
H          5.28900       -4.32820        0.06600
H          4.79152        1.09819       -0.48474
H          6.83261       -0.44641        1.16410
H          6.85285        1.33482        0.62130
22

C          1.74773        0.66622       -1.24529
C          2.14420        0.04410       -0.12430
C          3.02050       -1.17610       -0.07120
C          2.45420       -2.47210       -0.08360
C          3.25900       -3.61540       -0.03420
C          2.65980       -4.99170       -0.04620
C          4.64060       -3.46200        0.02720
N          5.18520       -2.22260        0.03930
C          4.44370       -1.07910       -0.00620
C          5.17820        0.22050        0.01050
C          6.40627        0.35589       -0.50670
H          1.11315        1.54394       -1.16979
H          2.02405        0.34922       -2.24033
H          1.78219        0.49214        0.78798
H          1.38740       -2.61830       -0.12940
H          1.55080       -4.95540       -0.09630
H          2.95130       -5.53330        0.87830
H          3.03240       -5.55310       -0.92880
H          5.28900       -4.32820        0.06600
H          4.74724        1.11132        0.44160
H          6.93190       -0.47515       -0.96584
H          6.90292        1.32059       -0.47362
22

C          2.43312        1.23137        0.43046
C          2.14420        0.04410       -0.12430
C          3.02050       -1.17610       -0.07120
C          2.45420       -2.47210       -0.08360
C          3.25900       -3.61540       -0.03420
C          2.65980       -4.99170       -0.04620
C          4.64060       -3.46200        0.02720
N          5.18520       -2.22260        0.03930
C          4.44370       -1.07910       -0.00620
C          5.17820        0.22050        0.01050
C          5.48400        0.85585        1.14927
H          1.72632        2.04967        0.33252
H          3.33929        1.43403        0.98250
H          1.19580        0.00898       -0.63748
H          1.38740       -2.61830       -0.12940
H          1.55080       -4.95540       -0.09630
H          2.95130       -5.53330        0.87830
H          3.03240       -5.55310       -0.92880
H          5.28900       -4.32820        0.06600
H          5.49669        0.70499       -0.89998
H          5.21244        0.45697        2.12131
H          6.02046        1.79893        1.11431
