
  xtb     02032211353D
 xtb: 6.4.1 (23d549d)
 56 56  0     0  0            999 V2000
    1.7627   -3.0780    1.1208 C   0  0  0  0  0  0  0  0  0  0  0  0
    1.9756   -2.1883    0.1603 C   0  0  0  0  0  0  0  0  0  0  0  0
    0.9678   -1.2689   -0.3643 C   0  0  0  0  0  0  0  0  0  0  0  0
   -0.3647   -1.6687   -0.4389 C   0  0  0  0  0  0  0  0  0  0  0  0
   -1.3657   -0.8524   -0.9351 C   0  0  0  0  0  0  0  0  0  0  0  0
   -2.7862   -1.3410   -0.9394 C   0  0  0  0  0  0  0  0  0  0  0  0
   -3.6110   -0.6545    0.1551 C   0  0  0  0  0  0  0  0  0  0  0  0
   -5.0658   -1.1161    0.1373 C   0  0  0  0  0  0  0  0  0  0  0  0
   -5.9070   -0.5031    1.2571 C   0  0  0  0  0  0  0  0  0  0  0  0
   -6.1404    0.9970    1.0894 C   0  0  0  0  0  0  0  0  0  0  0  0
   -7.0669    1.5436    2.1689 C   0  0  0  0  0  0  0  0  0  0  0  0
   -1.0278    0.4373   -1.3691 C   0  0  0  0  0  0  0  0  0  0  0  0
   -2.0340    1.3535   -1.9025 C   0  0  0  0  0  0  0  0  0  0  0  0
   -2.0115    2.6716   -1.7561 C   0  0  0  0  0  0  0  0  0  0  0  0
    0.3056    0.8346   -1.3013 C   0  0  0  0  0  0  0  0  0  0  0  0
    1.3089    0.0131   -0.8181 C   0  0  0  0  0  0  0  0  0  0  0  0
    2.7154    0.5338   -0.7342 C   0  0  0  0  0  0  0  0  0  0  0  0
    3.0860    0.8688    0.7152 C   0  0  0  0  0  0  0  0  0  0  0  0
    4.4908    1.4534    0.8578 C   0  0  0  0  0  0  0  0  0  0  0  0
    5.5992    0.4445    0.5648 C   0  0  0  0  0  0  0  0  0  0  0  0
    6.9843    1.0250    0.8410 C   0  0  0  0  0  0  0  0  0  0  0  0
    8.0909    0.0222    0.5380 C   0  0  0  0  0  0  0  0  0  0  0  0
    2.5414   -3.7386    1.4629 H   0  0  0  0  0  0  0  0  0  0  0  0
    0.8111   -3.1688    1.6175 H   0  0  0  0  0  0  0  0  0  0  0  0
    2.9624   -2.1143   -0.2783 H   0  0  0  0  0  0  0  0  0  0  0  0
   -0.6212   -2.6672   -0.1144 H   0  0  0  0  0  0  0  0  0  0  0  0
   -2.7994   -2.4206   -0.7743 H   0  0  0  0  0  0  0  0  0  0  0  0
   -3.2517   -1.1505   -1.9097 H   0  0  0  0  0  0  0  0  0  0  0  0
   -3.5599    0.4252    0.0090 H   0  0  0  0  0  0  0  0  0  0  0  0
   -3.1678   -0.8803    1.1280 H   0  0  0  0  0  0  0  0  0  0  0  0
   -5.0903   -2.2046    0.2359 H   0  0  0  0  0  0  0  0  0  0  0  0
   -5.5136   -0.8634   -0.8272 H   0  0  0  0  0  0  0  0  0  0  0  0
   -5.4187   -0.6871    2.2170 H   0  0  0  0  0  0  0  0  0  0  0  0
   -6.8776   -1.0055    1.2799 H   0  0  0  0  0  0  0  0  0  0  0  0
   -6.5792    1.1846    0.1065 H   0  0  0  0  0  0  0  0  0  0  0  0
   -5.1877    1.5269    1.1354 H   0  0  0  0  0  0  0  0  0  0  0  0
   -8.0355    1.0496    2.1282 H   0  0  0  0  0  0  0  0  0  0  0  0
   -7.2211    2.6122    2.0373 H   0  0  0  0  0  0  0  0  0  0  0  0
   -6.6407    1.3777    3.1561 H   0  0  0  0  0  0  0  0  0  0  0  0
   -2.8508    0.8983   -2.4479 H   0  0  0  0  0  0  0  0  0  0  0  0
   -1.2426    3.1723   -1.1916 H   0  0  0  0  0  0  0  0  0  0  0  0
   -2.7764    3.3011   -2.1787 H   0  0  0  0  0  0  0  0  0  0  0  0
    0.5680    1.8192   -1.6616 H   0  0  0  0  0  0  0  0  0  0  0  0
    2.8050    1.4371   -1.3417 H   0  0  0  0  0  0  0  0  0  0  0  0
    3.4135   -0.2051   -1.1308 H   0  0  0  0  0  0  0  0  0  0  0  0
    3.0033   -0.0334    1.3254 H   0  0  0  0  0  0  0  0  0  0  0  0
    2.3596    1.5911    1.0965 H   0  0  0  0  0  0  0  0  0  0  0  0
    4.6125    1.8167    1.8815 H   0  0  0  0  0  0  0  0  0  0  0  0
    4.5967    2.3121    0.1901 H   0  0  0  0  0  0  0  0  0  0  0  0
    5.5517    0.1331   -0.4804 H   0  0  0  0  0  0  0  0  0  0  0  0
    5.4504   -0.4429    1.1852 H   0  0  0  0  0  0  0  0  0  0  0  0
    7.0465    1.3279    1.8889 H   0  0  0  0  0  0  0  0  0  0  0  0
    7.1280    1.9194    0.2301 H   0  0  0  0  0  0  0  0  0  0  0  0
    7.9746   -0.8701    1.1496 H   0  0  0  0  0  0  0  0  0  0  0  0
    9.0675    0.4543    0.7442 H   0  0  0  0  0  0  0  0  0  0  0  0
    8.0614   -0.2747   -0.5083 H   0  0  0  0  0  0  0  0  0  0  0  0
  1  2  2  0  0  0  0
  2  3  1  0  0  0  0
  3  4  4  0  0  0  0
  4  5  4  0  0  0  0
  5  6  1  0  0  0  0
  6  7  1  0  0  0  0
  7  8  1  0  0  0  0
  8  9  1  0  0  0  0
  9 10  1  0  0  0  0
 10 11  1  0  0  0  0
  5 12  4  0  0  0  0
 12 13  1  0  0  0  0
 13 14  2  0  0  0  0
 12 15  4  0  0  0  0
  3 16  4  0  0  0  0
 15 16  4  0  0  0  0
 16 17  1  0  0  0  0
 17 18  1  0  0  0  0
 18 19  1  0  0  0  0
 19 20  1  0  0  0  0
 20 21  1  0  0  0  0
 21 22  1  0  0  0  0
  1 23  1  0  0  0  0
  1 24  1  0  0  0  0
  2 25  1  0  0  0  0
  4 26  1  0  0  0  0
  6 27  1  0  0  0  0
  6 28  1  0  0  0  0
  7 29  1  0  0  0  0
  7 30  1  0  0  0  0
  8 31  1  0  0  0  0
  8 32  1  0  0  0  0
  9 33  1  0  0  0  0
  9 34  1  0  0  0  0
 10 35  1  0  0  0  0
 10 36  1  0  0  0  0
 11 37  1  0  0  0  0
 11 38  1  0  0  0  0
 11 39  1  0  0  0  0
 13 40  1  0  0  0  0
 14 41  1  0  0  0  0
 14 42  1  0  0  0  0
 15 43  1  0  0  0  0
 17 44  1  0  0  0  0
 17 45  1  0  0  0  0
 18 46  1  0  0  0  0
 18 47  1  0  0  0  0
 19 48  1  0  0  0  0
 19 49  1  0  0  0  0
 20 50  1  0  0  0  0
 20 51  1  0  0  0  0
 21 52  1  0  0  0  0
 21 53  1  0  0  0  0
 22 54  1  0  0  0  0
 22 55  1  0  0  0  0
 22 56  1  0  0  0  0
M  END
