
 OpenBabel02032210523D

 20 20  0  0  0  0  0  0  0  0999 V2000
    1.0235    0.2419    0.4064 C   0  0  0  0  0  0  0  0  0  0  0  0
    2.1669    0.0182   -0.2553 C   0  0  0  0  0  0  0  0  0  0  0  0
    3.0115    1.0735   -0.8857 C   0  0  0  0  0  0  0  0  0  0  0  0
    2.6893    2.4419   -0.8322 C   0  0  0  0  0  0  0  0  0  0  0  0
    3.5182    3.3839   -1.4380 C   0  0  0  0  0  0  0  0  0  0  0  0
    4.6757    2.9840   -2.1058 C   0  0  0  0  0  0  0  0  0  0  0  0
    5.4520    3.9378   -2.6819 F   0  0  0  0  0  0  0  0  0  0  0  0
    5.0277    1.6213   -2.1825 C   0  0  0  0  0  0  0  0  0  0  0  0
    6.2819    1.2596   -2.9183 C   0  0  0  0  0  0  0  0  0  0  0  0
    6.7760    0.0287   -3.1435 C   0  0  0  0  0  0  0  0  0  0  0  0
    6.1747   -1.1094   -2.7189 F   0  0  0  0  0  0  0  0  0  0  0  0
    7.9364   -0.0926   -3.8402 F   0  0  0  0  0  0  0  0  0  0  0  0
    4.1797    0.6758   -1.5619 C   0  0  0  0  0  0  0  0  0  0  0  0
    0.4803   -0.5968    0.8302 H   0  0  0  0  0  0  0  0  0  0  0  0
    0.6028    1.2289    0.5431 H   0  0  0  0  0  0  0  0  0  0  0  0
    2.4960   -1.0144   -0.3341 H   0  0  0  0  0  0  0  0  0  0  0  0
    1.8059    2.8020   -0.3275 H   0  0  0  0  0  0  0  0  0  0  0  0
    3.2607    4.4344   -1.3893 H   0  0  0  0  0  0  0  0  0  0  0  0
    6.8678    2.0786   -3.3259 H   0  0  0  0  0  0  0  0  0  0  0  0
    4.4027   -0.3753   -1.5859 H   0  0  0  0  0  0  0  0  0  0  0  0
  1  2  2  0  0  0  0
  1 14  1  0  0  0  0
  1 15  1  0  0  0  0
  2  3  1  0  0  0  0
  2 16  1  0  0  0  0
  3  4  1  0  0  0  0
  3 13  2  0  0  0  0
  4  5  2  0  0  0  0
  4 17  1  0  0  0  0
  5  6  1  0  0  0  0
  5 18  1  0  0  0  0
  6  7  1  0  0  0  0
  6  8  2  0  0  0  0
  8  9  1  0  0  0  0
  8 13  1  0  0  0  0
  9 10  2  0  0  0  0
  9 19  1  0  0  0  0
 10 11  1  0  0  0  0
 10 12  1  0  0  0  0
 13 20  1  0  0  0  0
M  END
