 xtb: 6.5.0 (unknown)
          08112218553D

 24  0  0     0  0            999 V2000
   -3.8043    2.5065    0.0140 C   0  0  0  0  0  0  0  0  0  0  0  0
   -2.4945    2.2893   -0.0025 C   0  0  0  0  0  0  0  0  0  0  0  0
   -1.8236    0.9957   -0.0020 C   0  0  0  0  0  0  0  0  0  0  0  0
   -2.5050   -0.2200   -0.0040 C   0  0  0  0  0  0  0  0  0  0  0  0
   -1.8226   -1.4209   -0.0026 C   0  0  0  0  0  0  0  0  0  0  0  0
   -0.4333   -1.4502    0.0009 C   0  0  0  0  0  0  0  0  0  0  0  0
    0.3072   -2.5919    0.0026 O   0  0  0  0  0  0  0  0  0  0  0  0
   -0.3552   -3.8332    0.0026 C   0  0  0  0  0  0  0  0  0  0  0  0
    0.2821   -0.2318    0.0021 C   0  0  0  0  0  0  0  0  0  0  0  0
    1.7341   -0.2981    0.0059 C   0  0  0  0  0  0  0  0  0  0  0  0
    2.6075    0.6967   -0.0019 C   0  0  0  0  0  0  0  0  0  0  0  0
    2.3692    2.0053   -0.0156 F   0  0  0  0  0  0  0  0  0  0  0  0
    3.9275    0.5053    0.0031 F   0  0  0  0  0  0  0  0  0  0  0  0
   -0.4301    0.9609    0.0003 C   0  0  0  0  0  0  0  0  0  0  0  0
   -4.2042    3.5058    0.0125 H   0  0  0  0  0  0  0  0  0  0  0  0
   -4.5297    1.7112    0.0303 H   0  0  0  0  0  0  0  0  0  0  0  0
   -1.8236    3.1393   -0.0165 H   0  0  0  0  0  0  0  0  0  0  0  0
   -3.5833   -0.2373   -0.0075 H   0  0  0  0  0  0  0  0  0  0  0  0
   -2.3884   -2.3392   -0.0044 H   0  0  0  0  0  0  0  0  0  0  0  0
    0.4329   -4.5848    0.0053 H   0  0  0  0  0  0  0  0  0  0  0  0
   -0.9717   -3.9605   -0.8927 H   0  0  0  0  0  0  0  0  0  0  0  0
   -0.9759   -3.9583    0.8953 H   0  0  0  0  0  0  0  0  0  0  0  0
    2.1579   -1.2907    0.0156 H   0  0  0  0  0  0  0  0  0  0  0  0
    0.1068    1.8958    0.0017 H   0  0  0  0  0  0  0  0  0  0  0  0
M  END
