
 OpenBabel02012214073D

 20 20  0  0  0  0  0  0  0  0999 V2000
    0.8950   -0.0101    0.0396 C   0  0  0  0  0  0  0  0  0  0  0  0
    2.4013   -0.0322    0.0400 C   0  0  0  0  0  0  0  0  0  0  0  0
    3.0957    1.1882    0.0418 C   0  0  0  0  0  0  0  0  0  0  0  0
    4.4879    1.2126    0.0447 C   0  0  0  0  0  0  0  0  0  0  0  0
    5.1436    2.3998    0.0461 F   0  0  0  0  0  0  0  0  0  0  0  0
    5.2087    0.0212    0.0475 C   0  0  0  0  0  0  0  0  0  0  0  0
    4.5457   -1.2165    0.0457 C   0  0  0  0  0  0  0  0  0  0  0  0
    5.3665   -2.4796    0.0516 C   0  0  0  0  0  0  0  0  0  0  0  0
    3.1262   -1.2531    0.0402 C   0  0  0  0  0  0  0  0  0  0  0  0
    2.4366   -2.5018    0.0351 N   0  0  0  0  0  0  0  0  0  0  0  0
    0.4969    1.0270    0.0420 H   0  0  0  0  0  0  0  0  0  0  0  0
    0.5119   -0.5237    0.9463 H   0  0  0  0  0  0  0  0  0  0  0  0
    0.5106   -0.5209   -0.8681 H   0  0  0  0  0  0  0  0  0  0  0  0
    2.5572    2.1281    0.0412 H   0  0  0  0  0  0  0  0  0  0  0  0
    6.2909    0.0660    0.0513 H   0  0  0  0  0  0  0  0  0  0  0  0
    6.4564   -2.2642    0.0581 H   0  0  0  0  0  0  0  0  0  0  0  0
    5.1427   -3.0791   -0.8557 H   0  0  0  0  0  0  0  0  0  0  0  0
    5.1322   -3.0755    0.9587 H   0  0  0  0  0  0  0  0  0  0  0  0
    2.9407   -3.3985    0.0329 H   0  0  0  0  0  0  0  0  0  0  0  0
    1.4091   -2.5528    0.0285 H   0  0  0  0  0  0  0  0  0  0  0  0
  1  2  1  0  0  0  0
  1 11  1  0  0  0  0
  1 12  1  0  0  0  0
  1 13  1  0  0  0  0
  2  3  1  0  0  0  0
  2  9  2  0  0  0  0
  3  4  2  0  0  0  0
  3 14  1  0  0  0  0
  4  5  1  0  0  0  0
  4  6  1  0  0  0  0
  6  7  2  0  0  0  0
  6 15  1  0  0  0  0
  7  8  1  0  0  0  0
  7  9  1  0  0  0  0
  8 16  1  0  0  0  0
  8 17  1  0  0  0  0
  8 18  1  0  0  0  0
  9 10  1  0  0  0  0
 10 19  1  0  0  0  0
 10 20  1  0  0  0  0
M  END
