
  xtb     02012214073D
 xtb: 6.4.1 (23d549d)
 20 20  0     0  0            999 V2000
    0.9101   -0.0503    0.0801 c   0  0  0  0  0  0  0  0  0  0  0  0
    2.4112   -0.0331    0.0564 c   0  0  0  0  0  0  0  0  0  0  0  0
    3.0901    1.1735    0.0275 c   0  0  0  0  0  0  0  0  0  0  0  0
    4.4701    1.1801    0.0133 c   0  0  0  0  0  0  0  0  0  0  0  0
    5.1258    2.3673   -0.0187 f   0  0  0  0  0  0  0  0  0  0  0  0
    5.1994    0.0086    0.0332 c   0  0  0  0  0  0  0  0  0  0  0  0
    4.5396   -1.2085    0.0623 c   0  0  0  0  0  0  0  0  0  0  0  0
    5.3243   -2.4881    0.0919 c   0  0  0  0  0  0  0  0  0  0  0  0
    3.1363   -1.2348    0.0675 c   0  0  0  0  0  0  0  0  0  0  0  0
    2.4673   -2.4456    0.1607 n   0  0  0  0  0  0  0  0  0  0  0  0
    0.5218    0.9641    0.0978 h   0  0  0  0  0  0  0  0  0  0  0  0
    0.5460   -0.5749    0.9631 h   0  0  0  0  0  0  0  0  0  0  0  0
    0.5098   -0.5496   -0.8043 h   0  0  0  0  0  0  0  0  0  0  0  0
    2.5521    2.1085    0.0165 h   0  0  0  0  0  0  0  0  0  0  0  0
    6.2773    0.0512    0.0264 h   0  0  0  0  0  0  0  0  0  0  0  0
    6.3896   -2.2765    0.1134 h   0  0  0  0  0  0  0  0  0  0  0  0
    5.1184   -3.0948   -0.7920 h   0  0  0  0  0  0  0  0  0  0  0  0
    5.0706   -3.0738    0.9751 h   0  0  0  0  0  0  0  0  0  0  0  0
    2.9852   -3.2513   -0.1483 h   0  0  0  0  0  0  0  0  0  0  0  0
    1.5107   -2.4370   -0.1543 h   0  0  0  0  0  0  0  0  0  0  0  0
  1  2  1  0  0  0  0
  2  3  4  0  0  0  0
  3  4  4  0  0  0  0
  4  5  1  0  0  0  0
  4  6  4  0  0  0  0
  6  7  4  0  0  0  0
  7  8  1  0  0  0  0
  2  9  4  0  0  0  0
  7  9  4  0  0  0  0
  9 10  1  0  0  0  0
  1 11  1  0  0  0  0
  1 12  1  0  0  0  0
  1 13  1  0  0  0  0
  3 14  1  0  0  0  0
  6 15  1  0  0  0  0
  8 16  1  0  0  0  0
  8 17  1  0  0  0  0
  8 18  1  0  0  0  0
 10 19  1  0  0  0  0
 10 20  1  0  0  0  0
M  END
