
  xtb     02012213513D
 xtb: 6.4.1 (23d549d)
 20 20  0     0  0            999 V2000
    0.9673    0.1182    0.1325 c   0  0  0  0  0  0  0  0  0  0  0  0
    2.4544    0.1517   -0.0296 c   0  0  0  0  0  0  0  0  0  0  0  0
    3.1609    1.3390   -0.1052 c   0  0  0  0  0  0  0  0  0  0  0  0
    4.5422    1.3621   -0.2561 c   0  0  0  0  0  0  0  0  0  0  0  0
    5.2245    2.5476   -0.3290 o   0  0  0  0  0  0  0  0  0  0  0  0
    5.2549    0.1670   -0.3356 c   0  0  0  0  0  0  0  0  0  0  0  0
    6.7448    0.1610   -0.4987 c   0  0  0  0  0  0  0  0  0  0  0  0
    4.5463   -1.0236   -0.2596 c   0  0  0  0  0  0  0  0  0  0  0  0
    3.1691   -1.0456   -0.1090 c   0  0  0  0  0  0  0  0  0  0  0  0
    2.4716   -2.2203   -0.0342 o   0  0  0  0  0  0  0  0  0  0  0  0
    0.5560    1.1228    0.1802 h   0  0  0  0  0  0  0  0  0  0  0  0
    0.7041   -0.4204    1.0415 h   0  0  0  0  0  0  0  0  0  0  0  0
    0.5142   -0.4151   -0.7017 h   0  0  0  0  0  0  0  0  0  0  0  0
    2.6211    2.2758   -0.0450 h   0  0  0  0  0  0  0  0  0  0  0  0
    4.5966    3.2753   -0.2592 h   0  0  0  0  0  0  0  0  0  0  0  0
    7.1189    1.1789   -0.5405 h   0  0  0  0  0  0  0  0  0  0  0  0
    7.0246   -0.3564   -1.4156 h   0  0  0  0  0  0  0  0  0  0  0  0
    7.2164   -0.3549    0.3367 h   0  0  0  0  0  0  0  0  0  0  0  0
    5.0898   -1.9581   -0.3202 h   0  0  0  0  0  0  0  0  0  0  0  0
    3.0876   -2.9586   -0.1020 h   0  0  0  0  0  0  0  0  0  0  0  0
  1  2  1  0  0  0  0
  2  3  4  0  0  0  0
  3  4  4  0  0  0  0
  4  5  1  0  0  0  0
  4  6  4  0  0  0  0
  6  7  1  0  0  0  0
  6  8  4  0  0  0  0
  2  9  4  0  0  0  0
  8  9  4  0  0  0  0
  9 10  1  0  0  0  0
  1 11  1  0  0  0  0
  1 12  1  0  0  0  0
  1 13  1  0  0  0  0
  3 14  1  0  0  0  0
  5 15  1  0  0  0  0
  7 16  1  0  0  0  0
  7 17  1  0  0  0  0
  7 18  1  0  0  0  0
  8 19  1  0  0  0  0
 10 20  1  0  0  0  0
M  END
