
  xtb     02032211213D
 xtb: 6.4.1 (23d549d)
 20 20  0     0  0            999 V2000
    2.4922    1.2146    0.2525 c   0  0  0  0  0  0  0  0  0  0  0  0
    2.3713   -0.0816   -0.0072 c   0  0  0  0  0  0  0  0  0  0  0  0
    3.2052   -1.1465    0.5267 c   0  0  0  0  0  0  0  0  0  0  0  0
    4.2550   -0.9678    1.4307 c   0  0  0  0  0  0  0  0  0  0  0  0
    5.0299   -1.9683    1.8060 n   0  0  0  0  0  0  0  0  0  0  0  0
    4.7534   -3.1921    1.3556 c   0  0  0  0  0  0  0  0  0  0  0  0
    5.6048   -4.1813    1.7474 n   0  0  0  0  0  0  0  0  0  0  0  0
    3.6144   -3.4136    0.5356 c   0  0  0  0  0  0  0  0  0  0  0  0
    3.1554   -4.7217    0.0840 c   0  0  0  0  0  0  0  0  0  0  0  0
    3.2963   -5.8711    0.7341 c   0  0  0  0  0  0  0  0  0  0  0  0
    2.9070   -2.3808    0.1098 n   0  0  0  0  0  0  0  0  0  0  0  0
    1.8261    1.9370   -0.1871 h   0  0  0  0  0  0  0  0  0  0  0  0
    3.2516    1.6085    0.9062 h   0  0  0  0  0  0  0  0  0  0  0  0
    1.5964   -0.4384   -0.6727 h   0  0  0  0  0  0  0  0  0  0  0  0
    4.5014   -0.0048    1.8540 h   0  0  0  0  0  0  0  0  0  0  0  0
    6.4657   -3.8570    2.1602 h   0  0  0  0  0  0  0  0  0  0  0  0
    5.6548   -5.0095    1.1778 h   0  0  0  0  0  0  0  0  0  0  0  0
    2.6036   -4.6859   -0.8462 h   0  0  0  0  0  0  0  0  0  0  0  0
    3.7642   -5.9378    1.7019 h   0  0  0  0  0  0  0  0  0  0  0  0
    2.8969   -6.7877    0.3341 h   0  0  0  0  0  0  0  0  0  0  0  0
  1  2  2  0  0  0  0
  2  3  1  0  0  0  0
  3  4  4  0  0  0  0
  4  5  4  0  0  0  0
  5  6  4  0  0  0  0
  6  7  4  0  0  0  0
  6  8  4  0  0  0  0
  8  9  1  0  0  0  0
  9 10  2  0  0  0  0
  3 11  4  0  0  0  0
  8 11  4  0  0  0  0
  1 12  1  0  0  0  0
  1 13  1  0  0  0  0
  2 14  1  0  0  0  0
  4 15  1  0  0  0  0
  7 16  1  0  0  0  0
  7 17  1  0  0  0  0
  9 18  1  0  0  0  0
 10 19  1  0  0  0  0
 10 20  1  0  0  0  0
M  END
