
  xtb     02032211353D
 xtb: 6.4.1 (23d549d)
 53 53  0     0  0            999 V2000
    3.2620    1.5087    1.9702 C   0  0  0  0  0  0  0  0  0  0  0  0
    3.0884    0.9572    0.7745 C   0  0  0  0  0  0  0  0  0  0  0  0
    2.0954   -0.0328    0.4122 C   0  0  0  0  0  0  0  0  0  0  0  0
    2.6345   -1.3036   -0.6469 S   0  0  0  0  0  0  0  0  0  0  0  0
    1.0818   -2.0784   -0.5832 C   0  0  0  0  0  0  0  0  0  0  0  0
    0.8624   -3.3327   -1.2512 C   0  0  0  0  0  0  0  0  0  0  0  0
    1.7296   -3.9180   -2.0732 C   0  0  0  0  0  0  0  0  0  0  0  0
    0.1935   -1.3534    0.1808 C   0  0  0  0  0  0  0  0  0  0  0  0
   -1.2284   -1.7894    0.3751 C   0  0  0  0  0  0  0  0  0  0  0  0
   -2.0694   -1.6151   -0.8965 C   0  0  0  0  0  0  0  0  0  0  0  0
   -3.4451   -2.2752   -0.7947 C   0  0  0  0  0  0  0  0  0  0  0  0
   -4.3398   -1.7453    0.3274 C   0  0  0  0  0  0  0  0  0  0  0  0
   -4.6893   -0.2655    0.1865 C   0  0  0  0  0  0  0  0  0  0  0  0
   -5.7011    0.1726    1.2385 C   0  0  0  0  0  0  0  0  0  0  0  0
    0.7711   -0.1847    0.7494 C   0  0  0  0  0  0  0  0  0  0  0  0
   -0.0044    0.8166    1.5522 C   0  0  0  0  0  0  0  0  0  0  0  0
   -0.8708    1.7198    0.6626 C   0  0  0  0  0  0  0  0  0  0  0  0
   -0.0551    2.6341   -0.2505 C   0  0  0  0  0  0  0  0  0  0  0  0
    0.6325    3.7730    0.4997 C   0  0  0  0  0  0  0  0  0  0  0  0
    1.3157    4.7741   -0.4323 C   0  0  0  0  0  0  0  0  0  0  0  0
    2.5386    4.1962   -1.1344 C   0  0  0  0  0  0  0  0  0  0  0  0
    4.0486    2.2233    2.1432 H   0  0  0  0  0  0  0  0  0  0  0  0
    2.6541    1.2563    2.8220 H   0  0  0  0  0  0  0  0  0  0  0  0
    3.7824    1.1986   -0.0224 H   0  0  0  0  0  0  0  0  0  0  0  0
   -0.0839   -3.8125   -1.0406 H   0  0  0  0  0  0  0  0  0  0  0  0
    2.6786   -3.4639   -2.3065 H   0  0  0  0  0  0  0  0  0  0  0  0
    1.5174   -4.8644   -2.5382 H   0  0  0  0  0  0  0  0  0  0  0  0
   -1.6765   -1.2197    1.1876 H   0  0  0  0  0  0  0  0  0  0  0  0
   -1.2428   -2.8451    0.6616 H   0  0  0  0  0  0  0  0  0  0  0  0
   -1.5363   -2.0607   -1.7394 H   0  0  0  0  0  0  0  0  0  0  0  0
   -2.1847   -0.5537   -1.1204 H   0  0  0  0  0  0  0  0  0  0  0  0
   -3.3078   -3.3499   -0.6471 H   0  0  0  0  0  0  0  0  0  0  0  0
   -3.9618   -2.1394   -1.7483 H   0  0  0  0  0  0  0  0  0  0  0  0
   -3.8621   -1.9145    1.2943 H   0  0  0  0  0  0  0  0  0  0  0  0
   -5.2675   -2.3239    0.3209 H   0  0  0  0  0  0  0  0  0  0  0  0
   -5.1001   -0.0856   -0.8098 H   0  0  0  0  0  0  0  0  0  0  0  0
   -3.7887    0.3414    0.2906 H   0  0  0  0  0  0  0  0  0  0  0  0
   -6.6256   -0.3924    1.1400 H   0  0  0  0  0  0  0  0  0  0  0  0
   -5.9324    1.2299    1.1313 H   0  0  0  0  0  0  0  0  0  0  0  0
   -5.3062    0.0079    2.2391 H   0  0  0  0  0  0  0  0  0  0  0  0
    0.6749    1.4418    2.1245 H   0  0  0  0  0  0  0  0  0  0  0  0
   -0.6494    0.2926    2.2617 H   0  0  0  0  0  0  0  0  0  0  0  0
   -1.5133    2.3295    1.3031 H   0  0  0  0  0  0  0  0  0  0  0  0
   -1.5148    1.0947    0.0432 H   0  0  0  0  0  0  0  0  0  0  0  0
   -0.7260    3.0659   -0.9980 H   0  0  0  0  0  0  0  0  0  0  0  0
    0.6879    2.0345   -0.7777 H   0  0  0  0  0  0  0  0  0  0  0  0
    1.3786    3.3680    1.1857 H   0  0  0  0  0  0  0  0  0  0  0  0
   -0.1175    4.3030    1.0934 H   0  0  0  0  0  0  0  0  0  0  0  0
    1.6261    5.6418    0.1554 H   0  0  0  0  0  0  0  0  0  0  0  0
    0.5976    5.1222   -1.1787 H   0  0  0  0  0  0  0  0  0  0  0  0
    3.2558    3.8312   -0.4027 H   0  0  0  0  0  0  0  0  0  0  0  0
    3.0225    4.9590   -1.7406 H   0  0  0  0  0  0  0  0  0  0  0  0
    2.2613    3.3715   -1.7855 H   0  0  0  0  0  0  0  0  0  0  0  0
  1  2  2  0  0  0  0
  2  3  1  0  0  0  0
  3  4  1  0  0  0  0
  4  5  1  0  0  0  0
  5  6  1  0  0  0  0
  6  7  2  0  0  0  0
  5  8  4  0  0  0  0
  8  9  1  0  0  0  0
  9 10  1  0  0  0  0
 10 11  1  0  0  0  0
 11 12  1  0  0  0  0
 12 13  1  0  0  0  0
 13 14  1  0  0  0  0
  3 15  2  0  0  0  0
  8 15  4  0  0  0  0
 15 16  1  0  0  0  0
 16 17  1  0  0  0  0
 17 18  1  0  0  0  0
 18 19  1  0  0  0  0
 19 20  1  0  0  0  0
 20 21  1  0  0  0  0
  1 22  1  0  0  0  0
  1 23  1  0  0  0  0
  2 24  1  0  0  0  0
  6 25  1  0  0  0  0
  7 26  1  0  0  0  0
  7 27  1  0  0  0  0
  9 28  1  0  0  0  0
  9 29  1  0  0  0  0
 10 30  1  0  0  0  0
 10 31  1  0  0  0  0
 11 32  1  0  0  0  0
 11 33  1  0  0  0  0
 12 34  1  0  0  0  0
 12 35  1  0  0  0  0
 13 36  1  0  0  0  0
 13 37  1  0  0  0  0
 14 38  1  0  0  0  0
 14 39  1  0  0  0  0
 14 40  1  0  0  0  0
 16 41  1  0  0  0  0
 16 42  1  0  0  0  0
 17 43  1  0  0  0  0
 17 44  1  0  0  0  0
 18 45  1  0  0  0  0
 18 46  1  0  0  0  0
 19 47  1  0  0  0  0
 19 48  1  0  0  0  0
 20 49  1  0  0  0  0
 20 50  1  0  0  0  0
 21 51  1  0  0  0  0
 21 52  1  0  0  0  0
 21 53  1  0  0  0  0
M  END
