
  xtb     02032211363D
 xtb: 6.4.1 (23d549d)
 24 24  0     0  0            999 V2000
    2.9536    2.5532    0.2579 C   0  0  0  0  0  0  0  0  0  0  0  0
    2.7409    1.3123   -0.1631 C   0  0  0  0  0  0  0  0  0  0  0  0
    1.4707    0.6219   -0.0721 C   0  0  0  0  0  0  0  0  0  0  0  0
    0.2014    1.2231   -0.0138 C   0  0  0  0  0  0  0  0  0  0  0  0
   -0.7455    0.2147   -0.0280 C   0  0  0  0  0  0  0  0  0  0  0  0
   -2.1927    0.3067    0.0147 C   0  0  0  0  0  0  0  0  0  0  0  0
   -2.8349    1.3267    0.0790 O   0  0  0  0  0  0  0  0  0  0  0  0
   -2.7652   -0.9254   -0.0258 O   0  0  0  0  0  0  0  0  0  0  0  0
   -4.1826   -0.9381    0.0117 C   0  0  0  0  0  0  0  0  0  0  0  0
   -0.0803   -0.9760   -0.0974 N   0  0  0  0  0  0  0  0  0  0  0  0
    1.2605   -0.7648   -0.1127 C   0  0  0  0  0  0  0  0  0  0  0  0
    2.1720   -1.8804   -0.1485 C   0  0  0  0  0  0  0  0  0  0  0  0
    3.4414   -1.8701    0.2493 C   0  0  0  0  0  0  0  0  0  0  0  0
    3.9105    3.0325    0.1437 H   0  0  0  0  0  0  0  0  0  0  0  0
    2.1832    3.1287    0.7416 H   0  0  0  0  0  0  0  0  0  0  0  0
    3.5423    0.7546   -0.6302 H   0  0  0  0  0  0  0  0  0  0  0  0
   -0.0141    2.2717    0.0094 H   0  0  0  0  0  0  0  0  0  0  0  0
   -4.4790   -1.9837   -0.0161 H   0  0  0  0  0  0  0  0  0  0  0  0
   -4.5899   -0.4005   -0.8472 H   0  0  0  0  0  0  0  0  0  0  0  0
   -4.5425   -0.4607    0.9254 H   0  0  0  0  0  0  0  0  0  0  0  0
   -0.5368   -1.8738   -0.1002 H   0  0  0  0  0  0  0  0  0  0  0  0
    1.7378   -2.8045   -0.5145 H   0  0  0  0  0  0  0  0  0  0  0  0
    3.9025   -0.9949    0.6704 H   0  0  0  0  0  0  0  0  0  0  0  0
    4.0531   -2.7531    0.1819 H   0  0  0  0  0  0  0  0  0  0  0  0
  1  2  2  0  0  0  0
  2  3  1  0  0  0  0
  3  4  4  0  0  0  0
  4  5  4  0  0  0  0
  5  6  1  0  0  0  0
  6  7  2  0  0  0  0
  6  8  1  0  0  0  0
  8  9  1  0  0  0  0
  5 10  1  0  0  0  0
  3 11  4  0  0  0  0
 10 11  4  0  0  0  0
 11 12  1  0  0  0  0
 12 13  2  0  0  0  0
  1 14  1  0  0  0  0
  1 15  1  0  0  0  0
  2 16  1  0  0  0  0
  4 17  1  0  0  0  0
  9 18  1  0  0  0  0
  9 19  1  0  0  0  0
  9 20  1  0  0  0  0
 10 21  1  0  0  0  0
 12 22  1  0  0  0  0
 13 23  1  0  0  0  0
 13 24  1  0  0  0  0
M  END
