43

C          3.96958       -3.94450        0.51137
C          2.49290       -3.50514        0.48094
C          1.60356       -4.75834        0.46151
O          2.17114       -2.78985        1.62929
C          2.41190       -1.47710        1.91920
N          1.54330       -0.79500        2.75020
C          1.36590       -1.28290        4.09390
C          2.31932       -2.13154        4.68514
C          2.17520       -2.55018        6.00862
C          1.07190       -2.14656        6.78021
C          1.01538       -2.61438        8.19782
C          1.91001       -3.38945        8.83541
F          3.03402       -3.86828        8.24819
F          1.67800       -3.72745       10.13078
C          0.10141       -1.31904        6.17809
C          0.25226       -0.89172        4.85658
C          0.83580        0.41710        2.35130
C         -0.44794        0.40684        1.74240
C         -1.07681        1.59921        1.36498
C         -0.45661        2.82603        1.58382
C          0.79851        2.86956        2.18138
C          1.43679        1.68818        2.55700
O          3.38579       -0.92570        1.43646
C          2.20271       -2.67578       -0.78705
H          4.17240       -4.54498        1.42387
H          4.65337       -3.07133        0.50998
H          4.21021       -4.56391       -0.37987
H          1.77966       -5.37353        1.36964
H          1.81254       -5.38169       -0.43509
H          0.52978       -4.46910        0.44522
H          3.19965       -2.44006        4.13543
H          2.94449       -3.18112        6.43726
H          0.14826       -2.31049        8.77884
H         -0.77476       -0.97930        6.70073
H         -0.50440       -0.24970        4.42288
H         -1.00219       -0.49693        1.55888
H         -2.05497        1.57101        0.90240
H         -0.94682        3.74560        1.29098
H          1.28411        3.82210        2.35121
H          2.41840        1.78446        2.99910
H          2.40961       -3.27542       -1.70012
H          2.83411       -1.76563       -0.83594
H          1.13696       -2.36156       -0.80781
43

C          3.95439       -2.79087       -0.40448
C          3.31452       -1.38906       -0.39718
C          2.65102       -1.14034       -1.76090
O          2.31527       -1.31200        0.56689
C          2.41190       -1.47710        1.91920
N          1.54330       -0.79500        2.75020
C          1.36590       -1.28290        4.09390
C          2.05794       -2.42131        4.54542
C          1.93173       -2.85276        5.86661
C          1.10391       -2.17137        6.77542
C          1.05472       -2.68253        8.17827
C          0.84308       -1.96861        9.29771
F          0.63472       -0.62917        9.29944
F          0.85034       -2.61080       10.49504
C          0.38789       -1.04699        6.31469
C          0.52342       -0.60953        4.99484
C          0.83580        0.41710        2.35130
C         -0.44794        0.40684        1.74240
C         -1.07681        1.59921        1.36498
C         -0.45661        2.82603        1.58382
C          0.79851        2.86956        2.18138
C          1.43679        1.68818        2.55700
O          3.26594       -2.21902        2.37276
C          4.38935       -0.30647       -0.16784
H          3.17719       -3.56641       -0.57434
H          4.46169       -3.01093        0.55688
H          4.71350       -2.86842       -1.21295
H          1.86129       -1.89787       -1.95238
H          3.39793       -1.19117       -2.58289
H          2.17525       -0.13526       -1.78080
H          2.72988       -2.95613        3.88602
H          2.50202       -3.71739        6.18413
H          1.22425       -3.74736        8.31696
H         -0.27312       -0.48224        6.94744
H         -0.03199        0.26196        4.67103
H         -1.00219       -0.49693        1.55888
H         -2.05497        1.57101        0.90240
H         -0.94682        3.74560        1.29098
H          1.28411        3.82210        2.35121
H          2.41840        1.78446        2.99910
H          5.15345       -0.33956       -0.97477
H          4.91701       -0.44944        0.79681
H          3.92600        0.70362       -0.16474
43

C          2.80677       -4.35776        3.34830
C          2.96597       -3.90196        1.88492
C          2.48194       -5.02942        0.95953
O          2.17114       -2.78985        1.62929
C          2.41190       -1.47710        1.91920
N          1.54330       -0.79500        2.75020
C          1.36590       -1.28290        4.09390
C          2.18119       -0.82065        5.14290
C          1.96419       -1.24810        6.45355
C          0.93682       -2.15755        6.75838
C          0.75443       -2.53453        8.19236
C         -0.39200       -2.88082        8.80342
F         -1.58787       -2.93791        8.16770
F         -0.36378       -3.17708       10.12913
C          0.13799       -2.64291        5.70222
C          0.34911       -2.20598        4.39215
C          0.83580        0.41710        2.35130
C         -0.07783        0.46550        1.26419
C         -0.71931        1.65936        0.91370
C         -0.47795        2.82859        1.62944
C          0.40813        2.81280        2.70131
C          1.05673        1.63075        3.05657
O          3.38579       -0.92570        1.43646
C          4.44712       -3.60781        1.56946
H          1.73933       -4.57254        3.56920
H          3.15943       -3.58058        4.05655
H          3.39882       -5.27983        3.53575
H          1.41222       -5.25834        1.15315
H          3.07662       -5.95585        1.11505
H          2.58073       -4.72367       -0.10523
H          2.96328       -0.09570        4.95546
H          2.59537       -0.84852        7.23814
H          1.64154       -2.51264        8.82038
H         -0.65855       -3.34874        5.85572
H         -0.28518       -2.58908        3.60238
H         -0.33447       -0.39786        0.67561
H         -1.41217        1.67632        0.08229
H         -0.97667        3.74936        1.35535
H          0.59922        3.72098        3.25870
H          1.74796        1.68491        3.88576
H          5.06604       -4.51856        1.72295
H          4.85648       -2.81242        2.22460
H          4.55981       -3.28105        0.51329
43

C          4.95837       -2.16748        3.79943
C          4.41528       -2.82549        2.51622
C          4.60697       -4.34675        2.62036
O          3.05090       -2.59056        2.38527
C          2.41190       -1.47710        1.91920
N          1.54330       -0.79500        2.75020
C          1.36590       -1.28290        4.09390
C          2.18119       -0.82065        5.14290
C          1.96419       -1.24810        6.45355
C          0.93682       -2.15755        6.75838
C          0.75443       -2.53453        8.19236
C         -0.39200       -2.88082        8.80342
F         -1.58787       -2.93791        8.16770
F         -0.36378       -3.17708       10.12913
C          0.13799       -2.64291        5.70222
C          0.34911       -2.20598        4.39215
C          0.83580        0.41710        2.35130
C         -0.44794        0.40684        1.74240
C         -1.07681        1.59921        1.36498
C         -0.45661        2.82603        1.58382
C          0.79851        2.86956        2.18138
C          1.43679        1.68818        2.55700
O          2.61312       -1.10512        0.77610
C          5.18564       -2.31561        1.28074
H          4.40351       -2.54112        4.68650
H          4.85645       -1.06368        3.76445
H          6.03661       -2.40351        3.93197
H          4.05343       -4.74882        3.49565
H          5.68234       -4.60645        2.73106
H          4.21713       -4.84805        1.70731
H          2.96328       -0.09570        4.95546
H          2.59537       -0.84852        7.23814
H          1.64154       -2.51264        8.82038
H         -0.65855       -3.34874        5.85572
H         -0.28518       -2.58908        3.60238
H         -1.00219       -0.49693        1.55888
H         -2.05497        1.57101        0.90240
H         -0.94682        3.74560        1.29098
H          1.28411        3.82210        2.35121
H          2.41840        1.78446        2.99910
H          6.26709       -2.55798        1.36907
H          5.09874       -1.21605        1.16749
H          4.79358       -2.79272        0.35681
43

C          4.90719       -1.85016       -0.11323
C          4.24988       -0.59542        0.49352
C          4.25514        0.52452       -0.55886
O          2.92174       -0.84759        0.81961
C          2.41190       -1.47710        1.91920
N          1.54330       -0.79500        2.75020
C          1.36590       -1.28290        4.09390
C          2.45187       -1.35324        4.98524
C          2.26316       -1.76627        6.30488
C          0.99013       -2.13306        6.77431
C          0.87394       -2.52985        8.20984
C         -0.19318       -2.37579        9.01305
F         -1.35847       -1.81598        8.60536
F         -0.10474       -2.78617       10.30527
C         -0.09338       -2.08992        5.87247
C          0.09472       -1.66590        4.55467
C          0.83580        0.41710        2.35130
C         -0.58103        0.52062        2.32417
C         -1.21020        1.70352        1.91852
C         -0.45716        2.80998        1.53601
C          0.93180        2.74137        1.55548
C          1.56958        1.56687        1.95287
O          2.73481       -2.62871        2.15388
C          5.04107       -0.11505        1.72766
H          4.33646       -2.18948       -1.00401
H          4.94142       -2.68426        0.61691
H          5.95141       -1.63073       -0.42521
H          3.68187        0.21458       -1.45857
H          5.29295        0.77557       -0.86876
H          3.77997        1.44226       -0.14787
H          3.44300       -1.04974        4.67238
H          3.11916       -1.78103        6.96870
H          1.75266       -2.97922        8.66563
H         -1.09336       -2.36646        6.15498
H         -0.75709       -1.63462        3.88665
H         -1.23295       -0.28087        2.62466
H         -2.29086        1.76313        1.90455
H         -0.94784        3.72285        1.22368
H          1.52010        3.59968        1.25682
H          2.65019        1.56763        1.92914
H          6.08640        0.13760        1.44567
H          5.08740       -0.89461        2.51479
H          4.56637        0.79081        2.16248
43

C          4.97889       -1.60482        0.21654
C          4.75772       -2.24178        1.60216
C          6.03194       -2.05716        2.44126
O          3.72432       -1.60049        2.27649
C          2.41190       -1.47710        1.91920
N          1.54330       -0.79500        2.75020
C          1.36590       -1.28290        4.09390
C          2.31932       -2.13154        4.68514
C          2.17520       -2.55018        6.00862
C          1.07190       -2.14656        6.78021
C          1.01538       -2.61438        8.19782
C          1.91001       -3.38945        8.83541
F          3.03402       -3.86828        8.24819
F          1.67800       -3.72745       10.13078
C          0.10141       -1.31904        6.17809
C          0.25226       -0.89172        4.85658
C          0.83580        0.41710        2.35130
C          0.63621        0.79400        0.99595
C         -0.03735        1.97650        0.66780
C         -0.53224        2.80937        1.66732
C         -0.35630        2.46607        3.00354
C          0.31733        1.29328        3.34258
O          2.02557       -1.97492        0.87591
C          4.47440       -3.75180        1.46290
H          5.18686       -0.51860        0.32247
H          4.08877       -1.72719       -0.43361
H          5.84157       -2.08117       -0.29799
H          6.25828       -0.97730        2.57109
H          6.90394       -2.54627        1.95493
H          5.89707       -2.50386        3.45082
H          3.19965       -2.44006        4.13543
H          2.94449       -3.18112        6.43726
H          0.14826       -2.31049        8.77884
H         -0.77476       -0.97930        6.70073
H         -0.50440       -0.24970        4.42288
H          0.96865        0.19512        0.16620
H         -0.17965        2.24669       -0.37062
H         -1.05302        3.72245        1.40902
H         -0.73851        3.11274        3.78311
H          0.43968        1.08952        4.39700
H          5.33053       -4.26487        0.97312
H          3.57312       -3.94548        0.84678
H          4.31702       -4.20937        2.46332
43

C          2.95123       -3.42352       -0.41004
C          3.08022       -1.88828       -0.44139
C          2.53064       -1.37229       -1.78062
O          2.31527       -1.31200        0.56689
C          2.41190       -1.47710        1.91920
N          1.54330       -0.79500        2.75020
C          1.36590       -1.28290        4.09390
C          2.18119       -0.82065        5.14290
C          1.96419       -1.24810        6.45355
C          0.93682       -2.15755        6.75838
C          0.75443       -2.53453        8.19236
C          1.46855       -2.09994        9.24535
F          2.49405       -1.21992        9.13853
F          1.16389       -2.57153       10.48263
C          0.13799       -2.64291        5.70222
C          0.34911       -2.20598        4.39215
C          0.83580        0.41710        2.35130
C          0.63621        0.79400        0.99595
C         -0.03735        1.97650        0.66780
C         -0.53224        2.80937        1.66732
C         -0.35630        2.46607        3.00354
C          0.31733        1.29328        3.34258
O          3.26594       -2.21902        2.37276
C          4.55988       -1.46855       -0.32190
H          1.88458       -3.72077       -0.50083
H          3.35122       -3.84564        0.53432
H          3.51781       -3.87933       -1.25093
H          1.46039       -1.64813       -1.89325
H          3.09873       -1.79912       -2.63573
H          2.60660       -0.26370       -1.82730
H          2.96328       -0.09570        4.95546
H          2.59537       -0.84852        7.23814
H         -0.03160       -3.25235        8.41311
H         -0.65855       -3.34874        5.85572
H         -0.28518       -2.58908        3.60238
H          0.96865        0.19512        0.16620
H         -0.17965        2.24669       -0.37062
H         -1.05302        3.72245        1.40902
H         -0.73851        3.11274        3.78311
H          0.43968        1.08952        4.39700
H          5.15264       -1.88806       -1.16376
H          5.01547       -1.83346        0.62080
H          4.65069       -0.36124       -0.34653
43

C          4.82883        0.37919        1.45291
C          4.85859       -1.15373        1.60738
C          6.07428       -1.54174        2.46375
O          3.72432       -1.60049        2.27649
C          2.41190       -1.47710        1.91920
N          1.54330       -0.79500        2.75020
C          1.36590       -1.28290        4.09390
C          2.18119       -0.82065        5.14290
C          1.96419       -1.24810        6.45355
C          0.93682       -2.15755        6.75838
C          0.75443       -2.53453        8.19236
C          1.02426       -1.78105        9.27268
F          1.51819       -0.52090        9.19817
F          0.80748       -2.30524       10.50730
C          0.13799       -2.64291        5.70222
C          0.34911       -2.20598        4.39215
C          0.83580        0.41710        2.35130
C          0.97157        1.01378        1.06896
C          0.28061        2.18660        0.74229
C         -0.56173        2.79299        1.66987
C         -0.71877        2.23107        2.93235
C         -0.03184        1.06585        3.27080
O          2.02557       -1.97492        0.87591
C          4.99091       -1.83255        0.22842
H          4.73794        0.86337        2.44873
H          3.97464        0.70790        0.82659
H          5.76205        0.74012        0.96844
H          6.00395       -1.07764        3.47065
H          7.02132       -1.20938        1.98545
H          6.11647       -2.64521        2.59609
H          2.96328       -0.09570        4.95546
H          2.59537       -0.84852        7.23814
H          0.37677       -3.53443        8.39089
H         -0.65855       -3.34874        5.85572
H         -0.28518       -2.58908        3.60238
H          1.58523        0.59583        0.29023
H          0.39693        2.62625       -0.23993
H         -1.09459        3.69943        1.41278
H         -1.37180        2.70141        3.65646
H         -0.17930        0.68722        4.27238
H          5.92907       -1.51199       -0.27476
H          4.14711       -1.57001       -0.44127
H          5.01398       -2.93775        0.34234
43

C          2.59561       -3.32053       -0.73871
C          3.08022       -1.88828       -0.44139
C          2.89193       -1.02994       -1.70219
O          2.31527       -1.31200        0.56689
C          2.41190       -1.47710        1.91920
N          1.54330       -0.79500        2.75020
C          1.36590       -1.28290        4.09390
C          2.18119       -0.82065        5.14290
C          1.96419       -1.24810        6.45355
C          0.93682       -2.15755        6.75838
C          0.75443       -2.53453        8.19236
C         -0.03282       -1.92984        9.09911
F         -0.80164       -0.84972        8.81667
F         -0.05558       -2.40952       10.37011
C          0.13799       -2.64291        5.70222
C          0.34911       -2.20598        4.39215
C          0.83580        0.41710        2.35130
C         -0.44794        0.40684        1.74240
C         -1.07681        1.59921        1.36498
C         -0.45661        2.82603        1.58382
C          0.79851        2.86956        2.18138
C          1.43679        1.68818        2.55700
O          3.26594       -2.21902        2.37276
C          4.57681       -1.89180       -0.06715
H          1.51874       -3.31215       -1.01192
H          2.72681       -3.98443        0.13993
H          3.17087       -3.75910       -1.58287
H          1.82017       -0.99658       -1.99269
H          3.47769       -1.43893       -2.55409
H          3.22934        0.01278       -1.51287
H          2.96328       -0.09570        4.95546
H          2.59537       -0.84852        7.23814
H          1.33252       -3.38182        8.55257
H         -0.65855       -3.34874        5.85572
H         -0.28518       -2.58908        3.60238
H         -1.00219       -0.49693        1.55888
H         -2.05497        1.57101        0.90240
H         -0.94682        3.74560        1.29098
H          1.28411        3.82210        2.35121
H          2.41840        1.78446        2.99910
H          5.18574       -2.30244       -0.90181
H          4.77486       -2.51539        0.82802
H          4.92454       -0.85786        0.14507
43

C          4.12066       -4.20928        1.58485
C          2.90148       -3.65546        0.82232
C          1.97471       -4.82473        0.45392
O          2.17114       -2.78985        1.62929
C          2.41190       -1.47710        1.91920
N          1.54330       -0.79500        2.75020
C          1.36590       -1.28290        4.09390
C          1.67379       -0.47306        5.20211
C          1.44037       -0.92665        6.50111
C          0.90446       -2.20440        6.73710
C          0.65566       -2.59480        8.15744
C          0.88730       -1.85658        9.25698
F          1.39885       -0.60186        9.21836
F          0.61104       -2.39155       10.47499
C          0.62275       -3.02712        5.62671
C          0.84663       -2.56788        4.32643
C          0.83580        0.41710        2.35130
C          0.63621        0.79400        0.99595
C         -0.03735        1.97650        0.66780
C         -0.53224        2.80937        1.66732
C         -0.35630        2.46607        3.00354
C          0.31733        1.29328        3.34258
O          3.38579       -0.92570        1.43646
C          3.35024       -2.95476       -0.47672
H          3.79200       -4.71663        2.51702
H          4.82942       -3.40160        1.85928
H          4.67136       -4.94395        0.95808
H          1.62290       -5.34494        1.37033
H          2.49980       -5.56130       -0.19250
H          1.08158       -4.45130       -0.09362
H          2.05873        0.52934        5.06299
H          1.66473       -0.26336        7.32775
H          0.25796       -3.59209        8.32797
H          0.22271       -4.02004        5.72832
H          0.61299       -3.21817        3.49254
H          0.96865        0.19512        0.16620
H         -0.17965        2.24669       -0.37062
H         -1.05302        3.72245        1.40902
H         -0.73851        3.11274        3.78311
H          0.43968        1.08952        4.39700
H          3.88428       -3.66957       -1.13999
H          4.04030       -2.11155       -0.27125
H          2.46940       -2.55778       -1.02582
