
 OpenBabel02032211193D

 27 27  0  0  0  0  0  0  0  0999 V2000
    3.0196    1.3503    0.3509 C   0  0  0  0  0  0  0  0  0  0  0  0
    2.5633    0.2344   -0.2416 C   0  0  0  0  0  0  0  0  0  0  0  0
    3.1283   -1.1251   -0.0854 C   0  0  0  0  0  0  0  0  0  0  0  0
    4.5401   -1.1951   -0.0154 C   0  0  0  0  0  0  0  0  0  0  0  0
    5.2315   -2.4056    0.0666 C   0  0  0  0  0  0  0  0  0  0  0  0
    6.7299   -2.4483    0.1036 C   0  0  0  0  0  0  0  0  0  0  0  0
    4.5053   -3.5924    0.0775 C   0  0  0  0  0  0  0  0  0  0  0  0
    3.1032   -3.5841    0.0263 C   0  0  0  0  0  0  0  0  0  0  0  0
    2.3833   -4.8818   -0.0102 C   0  0  0  0  0  0  0  0  0  0  0  0
    2.7939   -6.0225    0.5640 C   0  0  0  0  0  0  0  0  0  0  0  0
    2.4018   -2.3433   -0.0746 C   0  0  0  0  0  0  0  0  0  0  0  0
    1.0380   -2.5261   -0.0911 O   0  0  0  0  0  0  0  0  0  0  0  0
    0.1376   -1.5155   -0.4913 C   0  0  0  0  0  0  0  0  0  0  0  0
    2.5566    2.3114    0.1393 H   0  0  0  0  0  0  0  0  0  0  0  0
    3.8634    1.3560    1.0301 H   0  0  0  0  0  0  0  0  0  0  0  0
    1.7424    0.3460   -0.9383 H   0  0  0  0  0  0  0  0  0  0  0  0
    5.1276   -0.2785   -0.0433 H   0  0  0  0  0  0  0  0  0  0  0  0
    7.1617   -1.4432    0.1417 H   0  0  0  0  0  0  0  0  0  0  0  0
    7.1102   -2.9464   -0.7940 H   0  0  0  0  0  0  0  0  0  0  0  0
    7.0726   -2.9933    0.9894 H   0  0  0  0  0  0  0  0  0  0  0  0
    5.0477   -4.5343    0.1074 H   0  0  0  0  0  0  0  0  0  0  0  0
    1.4430   -4.8841   -0.5556 H   0  0  0  0  0  0  0  0  0  0  0  0
    3.7051   -6.0958    1.1461 H   0  0  0  0  0  0  0  0  0  0  0  0
    2.1962   -6.9251    0.4730 H   0  0  0  0  0  0  0  0  0  0  0  0
   -0.8676   -1.9496   -0.4795 H   0  0  0  0  0  0  0  0  0  0  0  0
    0.3307   -1.1946   -1.5192 H   0  0  0  0  0  0  0  0  0  0  0  0
    0.1262   -0.6849    0.2183 H   0  0  0  0  0  0  0  0  0  0  0  0
  1  2  2  0  0  0  0
  1 14  1  0  0  0  0
  1 15  1  0  0  0  0
  2  3  1  0  0  0  0
  2 16  1  0  0  0  0
  3  4  1  0  0  0  0
  3 11  2  0  0  0  0
  4  5  2  0  0  0  0
  4 17  1  0  0  0  0
  5  6  1  0  0  0  0
  5  7  1  0  0  0  0
  6 18  1  0  0  0  0
  6 19  1  0  0  0  0
  6 20  1  0  0  0  0
  7  8  2  0  0  0  0
  7 21  1  0  0  0  0
  8  9  1  0  0  0  0
  8 11  1  0  0  0  0
  9 10  2  0  0  0  0
  9 22  1  0  0  0  0
 10 23  1  0  0  0  0
 10 24  1  0  0  0  0
 11 12  1  0  0  0  0
 12 13  1  0  0  0  0
 13 25  1  0  0  0  0
 13 26  1  0  0  0  0
 13 27  1  0  0  0  0
M  END
