
  xtb     02032211353D
 xtb: 6.4.1 (23d549d)
 17 17  0     0  0            999 V2000
    2.4578   -1.7041    0.3262 C   0  0  0  0  0  0  0  0  0  0  0  0
    2.2171   -0.5415   -0.2666 C   0  0  0  0  0  0  0  0  0  0  0  0
    0.9889    0.2288   -0.1620 C   0  0  0  0  0  0  0  0  0  0  0  0
    1.0055    1.6494   -0.1316 C   0  0  0  0  0  0  0  0  0  0  0  0
   -0.2244    2.1961    0.0163 C   0  0  0  0  0  0  0  0  0  0  0  0
   -1.4587    1.0041    0.1008 S   0  0  0  0  0  0  0  0  0  0  0  0
   -0.2914   -0.2788   -0.0585 C   0  0  0  0  0  0  0  0  0  0  0  0
   -0.7176   -1.6483   -0.1577 C   0  0  0  0  0  0  0  0  0  0  0  0
   -1.9356   -2.0884    0.1452 C   0  0  0  0  0  0  0  0  0  0  0  0
    3.4022   -2.2080    0.2089 H   0  0  0  0  0  0  0  0  0  0  0  0
    1.7368   -2.1809    0.9682 H   0  0  0  0  0  0  0  0  0  0  0  0
    2.9964   -0.0670   -0.8513 H   0  0  0  0  0  0  0  0  0  0  0  0
    1.9110    2.2266   -0.2002 H   0  0  0  0  0  0  0  0  0  0  0  0
   -0.4903    3.2326    0.0811 H   0  0  0  0  0  0  0  0  0  0  0  0
    0.0352   -2.3338   -0.5251 H   0  0  0  0  0  0  0  0  0  0  0  0
   -2.6970   -1.4247    0.5209 H   0  0  0  0  0  0  0  0  0  0  0  0
   -2.2072   -3.1229    0.0313 H   0  0  0  0  0  0  0  0  0  0  0  0
  1  2  2  0  0  0  0
  2  3  1  0  0  0  0
  3  4  4  0  0  0  0
  4  5  2  0  0  0  0
  5  6  1  0  0  0  0
  3  7  4  0  0  0  0
  6  7  1  0  0  0  0
  7  8  1  0  0  0  0
  8  9  2  0  0  0  0
  1 10  1  0  0  0  0
  1 11  1  0  0  0  0
  2 12  1  0  0  0  0
  4 13  1  0  0  0  0
  5 14  1  0  0  0  0
  8 15  1  0  0  0  0
  9 16  1  0  0  0  0
  9 17  1  0  0  0  0
M  END
