
 OpenBabel02032210503D

 20 20  0  0  0  0  0  0  0  0999 V2000
    2.5815    0.9838   -0.8194 C   0  0  0  0  0  0  0  0  0  0  0  0
    2.3196   -0.0891   -0.0641 C   0  0  0  0  0  0  0  0  0  0  0  0
    3.1045   -0.4351    1.1505 C   0  0  0  0  0  0  0  0  0  0  0  0
    4.1737    0.2723    1.6660 C   0  0  0  0  0  0  0  0  0  0  0  0
    4.6217   -0.3490    2.7666 N   0  0  0  0  0  0  0  0  0  0  0  0
    3.8843   -1.4298    2.9758 N   0  0  0  0  0  0  0  0  0  0  0  0
    4.1525   -2.2926    4.1187 C   0  0  0  0  0  0  0  0  0  0  0  0
    2.9324   -1.5272    2.0034 C   0  0  0  0  0  0  0  0  0  0  0  0
    1.8560   -2.5597    1.8059 C   0  0  0  0  0  0  0  0  0  0  0  0
    1.5983   -3.6914    2.4855 C   0  0  0  0  0  0  0  0  0  0  0  0
    2.3199   -4.1363    3.5343 F   0  0  0  0  0  0  0  0  0  0  0  0
    0.5460   -4.4563    2.0909 F   0  0  0  0  0  0  0  0  0  0  0  0
    1.9748    1.1849   -1.6968 H   0  0  0  0  0  0  0  0  0  0  0  0
    3.3877    1.6699   -0.5886 H   0  0  0  0  0  0  0  0  0  0  0  0
    1.4958   -0.7195   -0.3734 H   0  0  0  0  0  0  0  0  0  0  0  0
    4.6065    1.1827    1.2755 H   0  0  0  0  0  0  0  0  0  0  0  0
    4.9941   -1.8826    4.7175 H   0  0  0  0  0  0  0  0  0  0  0  0
    4.4628   -3.2981    3.7704 H   0  0  0  0  0  0  0  0  0  0  0  0
    3.2617   -2.3336    4.7797 H   0  0  0  0  0  0  0  0  0  0  0  0
    1.1724   -2.3789    0.9870 H   0  0  0  0  0  0  0  0  0  0  0  0
  1  2  2  0  0  0  0
  1 13  1  0  0  0  0
  1 14  1  0  0  0  0
  2  3  1  0  0  0  0
  2 15  1  0  0  0  0
  3  4  1  0  0  0  0
  3  8  2  0  0  0  0
  4  5  2  0  0  0  0
  4 16  1  0  0  0  0
  5  6  1  0  0  0  0
  6  7  1  0  0  0  0
  6  8  1  0  0  0  0
  7 17  1  0  0  0  0
  7 18  1  0  0  0  0
  7 19  1  0  0  0  0
  8  9  1  0  0  0  0
  9 10  2  0  0  0  0
  9 20  1  0  0  0  0
 10 11  1  0  0  0  0
 10 12  1  0  0  0  0
M  END
