
  xtb     02032211353D
 xtb: 6.4.1 (23d549d)
 26 26  0     0  0            999 V2000
   -4.4968   -0.0637    0.7444 C   0  0  0  0  0  0  0  0  0  0  0  0
   -3.5989   -0.9357    0.3025 C   0  0  0  0  0  0  0  0  0  0  0  0
   -2.2041   -0.6609   -0.0201 C   0  0  0  0  0  0  0  0  0  0  0  0
   -1.4406   -1.6500   -0.6427 C   0  0  0  0  0  0  0  0  0  0  0  0
   -0.1171   -1.4255   -0.9575 C   0  0  0  0  0  0  0  0  0  0  0  0
    0.4970   -0.2084   -0.6834 C   0  0  0  0  0  0  0  0  0  0  0  0
    1.9681   -0.0661   -0.9774 C   0  0  0  0  0  0  0  0  0  0  0  0
    2.7591   -0.4683    0.2643 C   0  0  0  0  0  0  0  0  0  0  0  0
    3.4558   -1.4373    0.3270 O   0  0  0  0  0  0  0  0  0  0  0  0
    2.6090    0.3570    1.3097 O   0  0  0  0  0  0  0  0  0  0  0  0
   -0.2534    0.7934   -0.0557 C   0  0  0  0  0  0  0  0  0  0  0  0
    0.2833    2.1238    0.2941 C   0  0  0  0  0  0  0  0  0  0  0  0
    0.8228    2.9818   -0.5595 C   0  0  0  0  0  0  0  0  0  0  0  0
   -1.5809    0.5476    0.2753 C   0  0  0  0  0  0  0  0  0  0  0  0
   -5.5099   -0.3620    0.9522 H   0  0  0  0  0  0  0  0  0  0  0  0
   -4.2698    0.9753    0.9116 H   0  0  0  0  0  0  0  0  0  0  0  0
   -3.9007   -1.9633    0.1405 H   0  0  0  0  0  0  0  0  0  0  0  0
   -1.8909   -2.6040   -0.8746 H   0  0  0  0  0  0  0  0  0  0  0  0
    0.4625   -2.2097   -1.4218 H   0  0  0  0  0  0  0  0  0  0  0  0
    2.2350    0.9573   -1.2396 H   0  0  0  0  0  0  0  0  0  0  0  0
    2.2557   -0.7321   -1.7904 H   0  0  0  0  0  0  0  0  0  0  0  0
    1.9943    1.0846    1.1164 H   0  0  0  0  0  0  0  0  0  0  0  0
    0.1287    2.4212    1.3264 H   0  0  0  0  0  0  0  0  0  0  0  0
    0.9277    2.7573   -1.6086 H   0  0  0  0  0  0  0  0  0  0  0  0
    1.1560    3.9570   -0.2467 H   0  0  0  0  0  0  0  0  0  0  0  0
   -2.1346    1.3298    0.7724 H   0  0  0  0  0  0  0  0  0  0  0  0
  1  2  2  0  0  0  0
  2  3  1  0  0  0  0
  3  4  4  0  0  0  0
  4  5  4  0  0  0  0
  5  6  4  0  0  0  0
  6  7  1  0  0  0  0
  7  8  1  0  0  0  0
  8  9  2  0  0  0  0
  8 10  1  0  0  0  0
  6 11  4  0  0  0  0
 11 12  1  0  0  0  0
 12 13  2  0  0  0  0
  3 14  4  0  0  0  0
 11 14  4  0  0  0  0
  1 15  1  0  0  0  0
  1 16  1  0  0  0  0
  2 17  1  0  0  0  0
  4 18  1  0  0  0  0
  5 19  1  0  0  0  0
  7 20  1  0  0  0  0
  7 21  1  0  0  0  0
 10 22  1  0  0  0  0
 12 23  1  0  0  0  0
 13 24  1  0  0  0  0
 13 25  1  0  0  0  0
 14 26  1  0  0  0  0
M  END
