23

C          2.08602        0.34814       -1.27929
N          2.24800        0.14240        0.14380
C          3.00500        1.02390        0.98310
C          2.65960        1.20020        2.33950
C          3.38720        2.06490        3.15770
C          4.47460        2.77790        2.64460
C          5.25660        3.71820        3.51460
C          4.83350        2.61300        1.30250
C          4.11340        1.74340        0.46380
C          4.53970        1.60460       -0.97430
H          1.47195       -0.46980       -1.71256
H          3.07945        0.34172       -1.77596
H          1.57246        1.31365       -1.47087
H          1.80150       -0.69479        0.54365
H          1.82470        0.67270        2.77920
H          3.09560        2.17840        4.19550
H          4.85760        3.74330        4.55100
H          5.20320        4.74420        3.09390
H          6.31870        3.39640        3.55410
H          5.67800        3.16870        0.91080
H          5.41840        2.24290       -1.20910
H          3.70850        1.91110       -1.64410
H          4.81860        0.55100       -1.18480
23

C          2.56293       -0.09003       -1.24924
N          2.24800        0.14240        0.14380
C          3.00500        1.02390        0.98310
C          2.65960        1.20020        2.33950
C          3.38720        2.06490        3.15770
C          4.47460        2.77790        2.64460
C          5.25660        3.71820        3.51460
C          4.83350        2.61300        1.30250
C          4.11340        1.74340        0.46380
C          4.53970        1.60460       -0.97430
H          1.84542       -0.81857       -1.68310
H          3.58699       -0.51069       -1.33846
H          2.49138        0.85856       -1.82171
H          1.44662       -0.37648        0.52941
H          1.82470        0.67270        2.77920
H          3.09560        2.17840        4.19550
H          4.85760        3.74330        4.55100
H          5.20320        4.74420        3.09390
H          6.31870        3.39640        3.55410
H          5.67800        3.16870        0.91080
H          5.41840        2.24290       -1.20910
H          3.70850        1.91110       -1.64410
H          4.81860        0.55100       -1.18480
23

C          2.82337       -0.57853       -0.97108
N          2.24800        0.14240        0.14380
C          3.00500        1.02390        0.98310
C          2.65960        1.20020        2.33950
C          3.38720        2.06490        3.15770
C          4.47460        2.77790        2.64460
C          5.25660        3.71820        3.51460
C          4.83350        2.61300        1.30250
C          4.11340        1.74340        0.46380
C          4.53970        1.60460       -0.97430
H          2.04602       -1.20425       -1.45896
H          3.63457       -1.24554       -0.60958
H          3.22464        0.13398       -1.72206
H          1.24822       -0.01728        0.33110
H          1.82470        0.67270        2.77920
H          3.09560        2.17840        4.19550
H          4.85760        3.74330        4.55100
H          5.20320        4.74420        3.09390
H          6.31870        3.39640        3.55410
H          5.67800        3.16870        0.91080
H          5.41840        2.24290       -1.20910
H          3.70850        1.91110       -1.64410
H          4.81860        0.55100       -1.18480
23

C          0.83906       -0.12262        0.33981
N          2.24800        0.14240        0.14380
C          3.00500        1.02390        0.98310
C          2.65960        1.20020        2.33950
C          3.38720        2.06490        3.15770
C          4.47460        2.77790        2.64460
C          5.25660        3.71820        3.51460
C          4.83350        2.61300        1.30250
C          4.11340        1.74340        0.46380
C          4.53970        1.60460       -0.97430
H          0.47373       -0.82411       -0.44010
H          0.26320        0.82359        0.25804
H          0.67086       -0.58411        1.33550
H          2.69955       -0.32481       -0.65492
H          1.82470        0.67270        2.77920
H          3.09560        2.17840        4.19550
H          4.85760        3.74330        4.55100
H          5.20320        4.74420        3.09390
H          6.31870        3.39640        3.55410
H          5.67800        3.16870        0.91080
H          5.41840        2.24290       -1.20910
H          3.70850        1.91110       -1.64410
H          4.81860        0.55100       -1.18480
23

C          1.10512       -0.61101        0.61279
N          2.24800        0.14240        0.14380
C          3.00500        1.02390        0.98310
C          2.65960        1.20020        2.33950
C          3.38720        2.06490        3.15770
C          4.47460        2.77790        2.64460
C          5.25660        3.71820        3.51460
C          4.83350        2.61300        1.30250
C          4.11340        1.74340        0.46380
C          4.53970        1.60460       -0.97430
H          0.67880       -1.20977       -0.22001
H          0.32159        0.08441        0.98172
H          1.41004       -1.30399        1.42487
H          2.49707        0.03422       -0.84937
H          1.82470        0.67270        2.77920
H          3.09560        2.17840        4.19550
H          4.85760        3.74330        4.55100
H          5.20320        4.74420        3.09390
H          6.31870        3.39640        3.55410
H          5.67800        3.16870        0.91080
H          5.41840        2.24290       -1.20910
H          3.70850        1.91110       -1.64410
H          4.81860        0.55100       -1.18480
23

C          1.56085       -1.02972        0.64151
N          2.24800        0.14240        0.14380
C          3.00500        1.02390        0.98310
C          2.65960        1.20020        2.33950
C          3.38720        2.06490        3.15770
C          4.47460        2.77790        2.64460
C          5.25660        3.71820        3.51460
C          4.83350        2.61300        1.30250
C          4.11340        1.74340        0.46380
C          4.53970        1.60460       -0.97430
H          1.03568       -1.54304       -0.19186
H          0.80660       -0.73015        1.39979
H          2.28816       -1.73887        1.08961
H          2.15795        0.33839       -0.86298
H          1.82470        0.67270        2.77920
H          3.09560        2.17840        4.19550
H          4.85760        3.74330        4.55100
H          5.20320        4.74420        3.09390
H          6.31870        3.39640        3.55410
H          5.67800        3.16870        0.91080
H          5.41840        2.24290       -1.20910
H          3.70850        1.91110       -1.64410
H          4.81860        0.55100       -1.18480
