
  xtb     02032211363D
 xtb: 6.4.1 (23d549d)
 22 23  0     0  0            999 V2000
   -4.0502   -0.0135    0.0053 C   0  0  0  0  0  0  0  0  0  0  0  0
   -3.0385   -0.8719   -0.0003 C   0  0  0  0  0  0  0  0  0  0  0  0
   -1.6349   -0.4754   -0.0017 C   0  0  0  0  0  0  0  0  0  0  0  0
   -0.6208   -1.4629   -0.0037 C   0  0  0  0  0  0  0  0  0  0  0  0
    0.7152   -1.1187   -0.0026 C   0  0  0  0  0  0  0  0  0  0  0  0
    1.7522   -2.1337   -0.0025 C   0  0  0  0  0  0  0  0  0  0  0  0
    3.0556   -1.8762    0.0072 C   0  0  0  0  0  0  0  0  0  0  0  0
    0.9970    0.2683   -0.0011 C   0  0  0  0  0  0  0  0  0  0  0  0
    2.1313    0.9452   -0.0005 N   0  0  0  0  0  0  0  0  0  0  0  0
    1.7872    2.2459   -0.0001 C   0  0  0  0  0  0  0  0  0  0  0  0
    0.4210    2.4017   -0.0002 C   0  0  0  0  0  0  0  0  0  0  0  0
   -0.0872    1.1469   -0.0008 N   0  0  0  0  0  0  0  0  0  0  0  0
   -1.3617    0.8099   -0.0005 N   0  0  0  0  0  0  0  0  0  0  0  0
   -5.0747   -0.3430    0.0070 H   0  0  0  0  0  0  0  0  0  0  0  0
   -3.8687    1.0472    0.0076 H   0  0  0  0  0  0  0  0  0  0  0  0
   -3.2145   -1.9393   -0.0029 H   0  0  0  0  0  0  0  0  0  0  0  0
   -0.9069   -2.5040   -0.0054 H   0  0  0  0  0  0  0  0  0  0  0  0
    1.3875   -3.1538   -0.0098 H   0  0  0  0  0  0  0  0  0  0  0  0
    3.4152   -0.8617    0.0143 H   0  0  0  0  0  0  0  0  0  0  0  0
    3.7833   -2.6701    0.0084 H   0  0  0  0  0  0  0  0  0  0  0  0
    2.5412    3.0084    0.0003 H   0  0  0  0  0  0  0  0  0  0  0  0
   -0.2031    3.2697    0.0003 H   0  0  0  0  0  0  0  0  0  0  0  0
  1  2  2  0  0  0  0
  2  3  1  0  0  0  0
  3  4  4  0  0  0  0
  4  5  4  0  0  0  0
  5  6  1  0  0  0  0
  6  7  2  0  0  0  0
  5  8  4  0  0  0  0
  8  9  4  0  0  0  0
  9 10  4  0  0  0  0
 10 11  4  0  0  0  0
  8 12  1  0  0  0  0
 11 12  4  0  0  0  0
  3 13  4  0  0  0  0
 12 13  1  0  0  0  0
  1 14  1  0  0  0  0
  1 15  1  0  0  0  0
  2 16  1  0  0  0  0
  4 17  1  0  0  0  0
  6 18  1  0  0  0  0
  7 19  1  0  0  0  0
  7 20  1  0  0  0  0
 10 21  1  0  0  0  0
 11 22  1  0  0  0  0
M  END
