
  xtb     02032211363D
 xtb: 6.4.1 (23d549d)
 32 32  0     0  0            999 V2000
    1.0311    3.7542    0.5939 C   0  0  0  0  0  0  0  0  0  0  0  0
    1.4577    2.6405    0.0119 C   0  0  0  0  0  0  0  0  0  0  0  0
    0.7442    1.3687    0.0625 C   0  0  0  0  0  0  0  0  0  0  0  0
   -0.6476    1.3497    0.0988 C   0  0  0  0  0  0  0  0  0  0  0  0
   -1.3774    0.1693    0.1268 C   0  0  0  0  0  0  0  0  0  0  0  0
   -2.8563    0.3233    0.1063 C   0  0  0  0  0  0  0  0  0  0  0  0
   -3.4357    1.2960    0.5234 O   0  0  0  0  0  0  0  0  0  0  0  0
   -3.4855   -0.7108   -0.4680 O   0  0  0  0  0  0  0  0  0  0  0  0
   -4.8981   -0.6041   -0.5592 C   0  0  0  0  0  0  0  0  0  0  0  0
   -0.7147   -1.0692    0.1352 C   0  0  0  0  0  0  0  0  0  0  0  0
   -1.4220   -2.3433    0.2438 C   0  0  0  0  0  0  0  0  0  0  0  0
   -1.0389   -3.4598   -0.3599 C   0  0  0  0  0  0  0  0  0  0  0  0
    0.6757   -1.0531    0.0868 C   0  0  0  0  0  0  0  0  0  0  0  0
    1.4077    0.1277    0.0410 C   0  0  0  0  0  0  0  0  0  0  0  0
    2.8902    0.0454    0.0291 C   0  0  0  0  0  0  0  0  0  0  0  0
    3.6499    0.9143    0.3800 O   0  0  0  0  0  0  0  0  0  0  0  0
    3.3180   -1.1463   -0.4238 O   0  0  0  0  0  0  0  0  0  0  0  0
    4.7254   -1.3248   -0.4524 C   0  0  0  0  0  0  0  0  0  0  0  0
    1.5917    4.6704    0.5273 H   0  0  0  0  0  0  0  0  0  0  0  0
    0.1267    3.7887    1.1783 H   0  0  0  0  0  0  0  0  0  0  0  0
    2.4015    2.6376   -0.5132 H   0  0  0  0  0  0  0  0  0  0  0  0
   -1.1954    2.2798    0.0833 H   0  0  0  0  0  0  0  0  0  0  0  0
   -5.2406   -1.5184   -1.0368 H   0  0  0  0  0  0  0  0  0  0  0  0
   -5.1746    0.2679   -1.1554 H   0  0  0  0  0  0  0  0  0  0  0  0
   -5.3370   -0.4998    0.4354 H   0  0  0  0  0  0  0  0  0  0  0  0
   -2.3096   -2.3427    0.8606 H   0  0  0  0  0  0  0  0  0  0  0  0
   -0.1843   -3.4911   -1.0150 H   0  0  0  0  0  0  0  0  0  0  0  0
   -1.5828   -4.3808   -0.2399 H   0  0  0  0  0  0  0  0  0  0  0  0
    1.2090   -1.9902    0.1149 H   0  0  0  0  0  0  0  0  0  0  0  0
    4.8966   -2.3317   -0.8243 H   0  0  0  0  0  0  0  0  0  0  0  0
    5.1437   -1.2076    0.5496 H   0  0  0  0  0  0  0  0  0  0  0  0
    5.1888   -0.5884   -1.1124 H   0  0  0  0  0  0  0  0  0  0  0  0
  1  2  2  0  0  0  0
  2  3  1  0  0  0  0
  3  4  4  0  0  0  0
  4  5  4  0  0  0  0
  5  6  1  0  0  0  0
  6  7  2  0  0  0  0
  6  8  1  0  0  0  0
  8  9  1  0  0  0  0
  5 10  4  0  0  0  0
 10 11  1  0  0  0  0
 11 12  2  0  0  0  0
 10 13  4  0  0  0  0
  3 14  4  0  0  0  0
 13 14  4  0  0  0  0
 14 15  1  0  0  0  0
 15 16  2  0  0  0  0
 15 17  1  0  0  0  0
 17 18  1  0  0  0  0
  1 19  1  0  0  0  0
  1 20  1  0  0  0  0
  2 21  1  0  0  0  0
  4 22  1  0  0  0  0
  9 23  1  0  0  0  0
  9 24  1  0  0  0  0
  9 25  1  0  0  0  0
 11 26  1  0  0  0  0
 12 27  1  0  0  0  0
 12 28  1  0  0  0  0
 13 29  1  0  0  0  0
 18 30  1  0  0  0  0
 18 31  1  0  0  0  0
 18 32  1  0  0  0  0
M  END
