
  xtb     02032211353D
 xtb: 6.4.1 (23d549d)
 23 23  0     0  0            999 V2000
   -4.1107    1.0859   -0.0874 C   0  0  0  0  0  0  0  0  0  0  0  0
   -3.5755   -0.1288   -0.0491 C   0  0  0  0  0  0  0  0  0  0  0  0
   -2.1566   -0.4534    0.0039 C   0  0  0  0  0  0  0  0  0  0  0  0
   -1.7627   -1.7914    0.0807 C   0  0  0  0  0  0  0  0  0  0  0  0
   -0.4322   -2.1439    0.1378 C   0  0  0  0  0  0  0  0  0  0  0  0
    0.5781   -1.1815    0.1195 C   0  0  0  0  0  0  0  0  0  0  0  0
    1.9847   -1.5688    0.1904 C   0  0  0  0  0  0  0  0  0  0  0  0
    2.4741   -2.6914   -0.3197 C   0  0  0  0  0  0  0  0  0  0  0  0
    0.1808    0.1620    0.0421 C   0  0  0  0  0  0  0  0  0  0  0  0
    1.2195    1.2483   -0.0014 C   0  0  0  0  0  0  0  0  0  0  0  0
    1.9125    1.3542    1.1518 F   0  0  0  0  0  0  0  0  0  0  0  0
    2.1363    1.0590   -0.9688 F   0  0  0  0  0  0  0  0  0  0  0  0
    0.6995    2.4649   -0.2232 F   0  0  0  0  0  0  0  0  0  0  0  0
   -1.1555    0.5168   -0.0168 C   0  0  0  0  0  0  0  0  0  0  0  0
   -5.1776    1.2228   -0.1246 H   0  0  0  0  0  0  0  0  0  0  0  0
   -3.5218    1.9867   -0.0821 H   0  0  0  0  0  0  0  0  0  0  0  0
   -4.2303   -0.9914   -0.0536 H   0  0  0  0  0  0  0  0  0  0  0  0
   -2.5185   -2.5635    0.1021 H   0  0  0  0  0  0  0  0  0  0  0  0
   -0.1577   -3.1841    0.2197 H   0  0  0  0  0  0  0  0  0  0  0  0
    2.6520   -0.8768    0.6843 H   0  0  0  0  0  0  0  0  0  0  0  0
    1.8605   -3.3955   -0.8564 H   0  0  0  0  0  0  0  0  0  0  0  0
    3.5195   -2.9330   -0.2399 H   0  0  0  0  0  0  0  0  0  0  0  0
   -1.4186    1.5601   -0.0832 H   0  0  0  0  0  0  0  0  0  0  0  0
  1  2  2  0  0  0  0
  2  3  1  0  0  0  0
  3  4  4  0  0  0  0
  4  5  4  0  0  0  0
  5  6  4  0  0  0  0
  6  7  1  0  0  0  0
  7  8  2  0  0  0  0
  6  9  4  0  0  0  0
  9 10  1  0  0  0  0
 10 11  1  0  0  0  0
 10 12  1  0  0  0  0
 10 13  1  0  0  0  0
  3 14  4  0  0  0  0
  9 14  4  0  0  0  0
  1 15  1  0  0  0  0
  1 16  1  0  0  0  0
  2 17  1  0  0  0  0
  4 18  1  0  0  0  0
  5 19  1  0  0  0  0
  7 20  1  0  0  0  0
  8 21  1  0  0  0  0
  8 22  1  0  0  0  0
 14 23  1  0  0  0  0
M  END
