
  xtb     02032211033D
 xtb: 6.4.1 (23d549d)
 26 26  0     0  0            999 V2000
    1.1148    0.2794    0.2052 c   0  0  0  0  0  0  0  0  0  0  0  0
    2.3315   -0.2246    0.0401 c   0  0  0  0  0  0  0  0  0  0  0  0
    3.1013   -0.2319   -1.1988 c   0  0  0  0  0  0  0  0  0  0  0  0
    4.3671   -0.8175   -1.2091 c   0  0  0  0  0  0  0  0  0  0  0  0
    5.1614   -0.8620   -2.3532 c   0  0  0  0  0  0  0  0  0  0  0  0
    6.4749   -1.4926   -2.2741 c   0  0  0  0  0  0  0  0  0  0  0  0
    7.3642   -1.6062   -3.2530 c   0  0  0  0  0  0  0  0  0  0  0  0
    4.6619   -0.2966   -3.5309 c   0  0  0  0  0  0  0  0  0  0  0  0
    3.4131    0.2831   -3.5245 c   0  0  0  0  0  0  0  0  0  0  0  0
    2.6629    1.0470   -4.9726 s   0  0  0  0  0  0  0  0  0  0  0  0
    3.8429    0.8893   -6.3483 c   0  0  0  0  0  0  0  0  0  0  0  0
    1.4847    0.2925   -5.3075 o   0  0  0  0  0  0  0  0  0  0  0  0
    2.4928    2.4474   -4.6907 o   0  0  0  0  0  0  0  0  0  0  0  0
    2.6315    0.3249   -2.3890 c   0  0  0  0  0  0  0  0  0  0  0  0
    0.6192    0.2378    1.1598 h   0  0  0  0  0  0  0  0  0  0  0  0
    0.5643    0.7451   -0.5934 h   0  0  0  0  0  0  0  0  0  0  0  0
    2.8319   -0.6845    0.8835 h   0  0  0  0  0  0  0  0  0  0  0  0
    4.7471   -1.2528   -0.2949 h   0  0  0  0  0  0  0  0  0  0  0  0
    6.7167   -1.8988   -1.2999 h   0  0  0  0  0  0  0  0  0  0  0  0
    7.1956   -1.2287   -4.2468 h   0  0  0  0  0  0  0  0  0  0  0  0
    8.3099   -2.0939   -3.0918 h   0  0  0  0  0  0  0  0  0  0  0  0
    5.2507   -0.3168   -4.4319 h   0  0  0  0  0  0  0  0  0  0  0  0
    4.0115   -0.1613   -6.5451 h   0  0  0  0  0  0  0  0  0  0  0  0
    4.7529    1.4141   -6.0892 h   0  0  0  0  0  0  0  0  0  0  0  0
    3.3695    1.3593   -7.2020 h   0  0  0  0  0  0  0  0  0  0  0  0
    1.6651    0.7954   -2.4578 h   0  0  0  0  0  0  0  0  0  0  0  0
  1  2  2  0  0  0  0
  2  3  1  0  0  0  0
  3  4  4  0  0  0  0
  4  5  4  0  0  0  0
  5  6  1  0  0  0  0
  6  7  2  0  0  0  0
  5  8  4  0  0  0  0
  8  9  4  0  0  0  0
  9 10  1  0  0  0  0
 10 11  1  0  0  0  0
 10 12  2  0  0  0  0
 10 13  2  0  0  0  0
  3 14  4  0  0  0  0
  9 14  4  0  0  0  0
  1 15  1  0  0  0  0
  1 16  1  0  0  0  0
  2 17  1  0  0  0  0
  4 18  1  0  0  0  0
  6 19  1  0  0  0  0
  7 20  1  0  0  0  0
  7 21  1  0  0  0  0
  8 22  1  0  0  0  0
 11 23  1  0  0  0  0
 11 24  1  0  0  0  0
 11 25  1  0  0  0  0
 14 26  1  0  0  0  0
M  END
