26

C          2.55157        0.61343       -1.53091
C          2.30670       -0.00750       -0.36460
C          3.21420       -1.00820        0.30430
C          3.04120       -2.37700       -0.00640
C          3.83150       -3.37060        0.56360
N          3.61400       -4.73200        0.22910
C          4.83270       -3.02700        1.46130
C          5.05900       -1.68660        1.81390
C          6.15010       -1.31840        2.78060
C          6.01295       -1.22072        4.11173
C          4.25050       -0.65930        1.25040
O          4.56470        0.60580        1.66700
C          5.06968        1.11335        2.83995
H          1.82580        1.32271       -1.91878
H          3.44366        0.47157       -2.12335
H          1.37721        0.28858        0.06992
H          2.27910       -2.71080       -0.68980
H          2.87040       -5.00150       -0.43220
H          4.19000       -5.47720        0.64780
H          5.42360       -3.82780        1.87590
H          7.14497       -1.11552        2.39683
H          5.08429       -1.40100        4.63363
H          6.87361       -0.95139        4.71572
H          5.15575        2.21424        2.73601
H          6.09409        0.72492        3.01859
H          4.37183        0.91831        3.68056
26

C          2.34760        1.32436       -0.19060
C          2.30670       -0.00750       -0.36460
C          3.21420       -1.00820        0.30430
C          3.04120       -2.37700       -0.00640
C          3.83150       -3.37060        0.56360
N          3.61400       -4.73200        0.22910
C          4.83270       -3.02700        1.46130
C          5.05900       -1.68660        1.81390
C          6.15010       -1.31840        2.78060
C          6.60169       -2.09239        3.77924
C          4.25050       -0.65930        1.25040
O          4.56470        0.60580        1.66700
C          5.06968        1.11335        2.83995
H          1.63886        1.95256       -0.72288
H          3.03788        1.83411        0.46559
H          1.53691       -0.30891       -1.04062
H          2.27910       -2.71080       -0.68980
H          2.87040       -5.00150       -0.43220
H          4.19000       -5.47720        0.64780
H          5.42360       -3.82780        1.87590
H          6.63569       -0.35274        2.68111
H          6.21810       -3.07948        3.99323
H          7.40063       -1.72533        4.41566
H          5.15575        2.21424        2.73601
H          6.09409        0.72492        3.01859
H          4.37183        0.91831        3.68056
26

C          2.55157        0.61343       -1.53091
C          2.30670       -0.00750       -0.36460
C          3.21420       -1.00820        0.30430
C          3.04120       -2.37700       -0.00640
C          3.83150       -3.37060        0.56360
N          3.61400       -4.73200        0.22910
C          4.83270       -3.02700        1.46130
C          5.05900       -1.68660        1.81390
C          6.15010       -1.31840        2.78060
C          7.41641       -1.02095        2.45158
C          4.25050       -0.65930        1.25040
O          4.56470        0.60580        1.66700
C          4.06208        1.84891        1.36620
H          1.82580        1.32271       -1.91878
H          3.44366        0.47157       -2.12335
H          1.37721        0.28858        0.06992
H          2.27910       -2.71080       -0.68980
H          2.87040       -5.00150       -0.43220
H          4.19000       -5.47720        0.64780
H          5.42360       -3.82780        1.87590
H          5.91989       -1.27550        3.84049
H          7.78684       -1.01600        1.43667
H          8.12193       -0.76328        3.23511
H          4.63594        2.60586        1.93880
H          3.00516        1.92753        1.69624
H          4.20539        2.07635        0.28945
26

C          1.04592       -0.24114       -0.76665
C          2.30670       -0.00750       -0.36460
C          3.21420       -1.00820        0.30430
C          3.04120       -2.37700       -0.00640
C          3.83150       -3.37060        0.56360
N          3.61400       -4.73200        0.22910
C          4.83270       -3.02700        1.46130
C          5.05900       -1.68660        1.81390
C          6.15010       -1.31840        2.78060
C          6.01295       -1.22072        4.11173
C          4.25050       -0.65930        1.25040
O          4.56470        0.60580        1.66700
C          5.06968        1.11335        2.83995
H          0.48323        0.55620       -1.24403
H          0.53739       -1.18867       -0.66418
H          2.62635        0.98910       -0.57679
H          2.27910       -2.71080       -0.68980
H          2.87040       -5.00150       -0.43220
H          4.19000       -5.47720        0.64780
H          5.42360       -3.82780        1.87590
H          7.14497       -1.11552        2.39683
H          5.08429       -1.40100        4.63363
H          6.87361       -0.95139        4.71572
H          5.15575        2.21424        2.73601
H          6.09409        0.72492        3.01859
H          4.37183        0.91831        3.68056
26

C          1.12610        0.42022        0.11398
C          2.30670       -0.00750       -0.36460
C          3.21420       -1.00820        0.30430
C          3.04120       -2.37700       -0.00640
C          3.83150       -3.37060        0.56360
N          3.61400       -4.73200        0.22910
C          4.83270       -3.02700        1.46130
C          5.05900       -1.68660        1.81390
C          6.15010       -1.31840        2.78060
C          6.01295       -1.22072        4.11173
C          4.25050       -0.65930        1.25040
O          4.56470        0.60580        1.66700
C          5.06968        1.11335        2.83995
H          0.55095        1.14359       -0.45717
H          0.68317        0.08232        1.03949
H          2.55274        0.43600       -1.30439
H          2.27910       -2.71080       -0.68980
H          2.87040       -5.00150       -0.43220
H          4.19000       -5.47720        0.64780
H          5.42360       -3.82780        1.87590
H          7.14497       -1.11552        2.39683
H          5.08429       -1.40100        4.63363
H          6.87361       -0.95139        4.71572
H          5.15575        2.21424        2.73601
H          6.09409        0.72492        3.01859
H          4.37183        0.91831        3.68056
26

C          1.90972        1.16320        0.16236
C          2.30670       -0.00750       -0.36460
C          3.21420       -1.00820        0.30430
C          3.04120       -2.37700       -0.00640
C          3.83150       -3.37060        0.56360
N          3.61400       -4.73200        0.22910
C          4.83270       -3.02700        1.46130
C          5.05900       -1.68660        1.81390
C          6.15010       -1.31840        2.78060
C          6.84010       -0.16768        2.77706
C          4.25050       -0.65930        1.25040
O          4.56470        0.60580        1.66700
C          3.83146        1.75868        1.81415
H          1.24787        1.80718       -0.40993
H          2.19140        1.51903        1.14264
H          1.89918       -0.17835       -1.33680
H          2.27910       -2.71080       -0.68980
H          2.87040       -5.00150       -0.43220
H          4.19000       -5.47720        0.64780
H          5.42360       -3.82780        1.87590
H          6.41841       -2.02217        3.56221
H          6.67697        0.62704        2.06355
H          7.60604       -0.00568        3.52883
H          4.50828        2.55965        2.17543
H          3.04989        1.62195        2.59046
H          3.42683        2.08997        0.83528
26

C          1.12610        0.42022        0.11398
C          2.30670       -0.00750       -0.36460
C          3.21420       -1.00820        0.30430
C          3.04120       -2.37700       -0.00640
C          3.83150       -3.37060        0.56360
N          3.61400       -4.73200        0.22910
C          4.83270       -3.02700        1.46130
C          5.05900       -1.68660        1.81390
C          6.15010       -1.31840        2.78060
C          6.60169       -2.09239        3.77924
C          4.25050       -0.65930        1.25040
O          4.56470        0.60580        1.66700
C          5.06968        1.11335        2.83995
H          0.55095        1.14359       -0.45717
H          0.68317        0.08232        1.03949
H          2.55274        0.43600       -1.30439
H          2.27910       -2.71080       -0.68980
H          2.87040       -5.00150       -0.43220
H          4.19000       -5.47720        0.64780
H          5.42360       -3.82780        1.87590
H          6.63569       -0.35274        2.68111
H          6.21810       -3.07948        3.99323
H          7.40063       -1.72533        4.41566
H          5.15575        2.21424        2.73601
H          6.09409        0.72492        3.01859
H          4.37183        0.91831        3.68056
26

C          1.90972        1.16320        0.16236
C          2.30670       -0.00750       -0.36460
C          3.21420       -1.00820        0.30430
C          3.04120       -2.37700       -0.00640
C          3.83150       -3.37060        0.56360
N          3.61400       -4.73200        0.22910
C          4.83270       -3.02700        1.46130
C          5.05900       -1.68660        1.81390
C          6.15010       -1.31840        2.78060
C          7.41641       -1.02095        2.45158
C          4.25050       -0.65930        1.25040
O          4.56470        0.60580        1.66700
C          3.83146        1.75868        1.81415
H          1.24787        1.80718       -0.40993
H          2.19140        1.51903        1.14264
H          1.89918       -0.17835       -1.33680
H          2.27910       -2.71080       -0.68980
H          2.87040       -5.00150       -0.43220
H          4.19000       -5.47720        0.64780
H          5.42360       -3.82780        1.87590
H          5.91989       -1.27550        3.84049
H          7.78684       -1.01600        1.43667
H          8.12193       -0.76328        3.23511
H          4.50828        2.55965        2.17543
H          3.04989        1.62195        2.59046
H          3.42683        2.08997        0.83528
26

C          2.63006        1.26083       -0.66887
C          2.30670       -0.00750       -0.36460
C          3.21420       -1.00820        0.30430
C          3.04120       -2.37700       -0.00640
C          3.83150       -3.37060        0.56360
N          3.61400       -4.73200        0.22910
C          4.83270       -3.02700        1.46130
C          5.05900       -1.68660        1.81390
C          6.15010       -1.31840        2.78060
C          7.41641       -1.02095        2.45158
C          4.25050       -0.65930        1.25040
O          4.56470        0.60580        1.66700
C          3.83146        1.75868        1.81415
H          1.89210        1.89770       -1.14853
H          3.58637        1.71573       -0.45565
H          1.30515       -0.25285       -0.64231
H          2.27910       -2.71080       -0.68980
H          2.87040       -5.00150       -0.43220
H          4.19000       -5.47720        0.64780
H          5.42360       -3.82780        1.87590
H          5.91989       -1.27550        3.84049
H          7.78684       -1.01600        1.43667
H          8.12193       -0.76328        3.23511
H          4.50828        2.55965        2.17543
H          3.04989        1.62195        2.59046
H          3.42683        2.08997        0.83528
26

C          2.63006        1.26083       -0.66887
C          2.30670       -0.00750       -0.36460
C          3.21420       -1.00820        0.30430
C          3.04120       -2.37700       -0.00640
C          3.83150       -3.37060        0.56360
N          3.61400       -4.73200        0.22910
C          4.83270       -3.02700        1.46130
C          5.05900       -1.68660        1.81390
C          6.15010       -1.31840        2.78060
C          6.01295       -1.22072        4.11173
C          4.25050       -0.65930        1.25040
O          4.56470        0.60580        1.66700
C          3.83146        1.75868        1.81415
H          1.89210        1.89770       -1.14853
H          3.58637        1.71573       -0.45565
H          1.30515       -0.25285       -0.64231
H          2.27910       -2.71080       -0.68980
H          2.87040       -5.00150       -0.43220
H          4.19000       -5.47720        0.64780
H          5.42360       -3.82780        1.87590
H          7.14497       -1.11552        2.39683
H          5.08429       -1.40100        4.63363
H          6.87361       -0.95139        4.71572
H          4.50828        2.55965        2.17543
H          3.04989        1.62195        2.59046
H          3.42683        2.08997        0.83528
