
  xtb     02032211353D
 xtb: 6.4.1 (23d549d)
 26 26  0     0  0            999 V2000
   -4.0032    2.0141   -0.6097 C   0  0  0  0  0  0  0  0  0  0  0  0
   -3.4604    1.0391    0.1063 C   0  0  0  0  0  0  0  0  0  0  0  0
   -2.0313    0.7247    0.1226 C   0  0  0  0  0  0  0  0  0  0  0  0
   -1.1074    1.7691    0.0456 C   0  0  0  0  0  0  0  0  0  0  0  0
    0.2521    1.5271    0.0438 C   0  0  0  0  0  0  0  0  0  0  0  0
    0.6929    0.2200    0.1267 C   0  0  0  0  0  0  0  0  0  0  0  0
    2.4504   -0.1232    0.0878 S   0  0  0  0  0  0  0  0  0  0  0  0
    2.7941   -0.2595   -1.6944 C   0  0  0  0  0  0  0  0  0  0  0  0
    3.1679    1.0145    0.5956 O   0  0  0  0  0  0  0  0  0  0  0  0
    2.6946   -1.4066    0.6887 O   0  0  0  0  0  0  0  0  0  0  0  0
   -0.1917   -0.8305    0.2120 C   0  0  0  0  0  0  0  0  0  0  0  0
   -1.5683   -0.6038    0.2095 C   0  0  0  0  0  0  0  0  0  0  0  0
   -2.4881   -1.7376    0.2798 C   0  0  0  0  0  0  0  0  0  0  0  0
   -2.2328   -2.9455   -0.2051 C   0  0  0  0  0  0  0  0  0  0  0  0
   -5.0607    2.2129   -0.5814 H   0  0  0  0  0  0  0  0  0  0  0  0
   -3.4192    2.6353   -1.2681 H   0  0  0  0  0  0  0  0  0  0  0  0
   -4.0981    0.4202    0.7226 H   0  0  0  0  0  0  0  0  0  0  0  0
   -1.4708    2.7847    0.0083 H   0  0  0  0  0  0  0  0  0  0  0  0
    0.9753    2.3261    0.0064 H   0  0  0  0  0  0  0  0  0  0  0  0
    2.5463    0.6866   -2.1573 H   0  0  0  0  0  0  0  0  0  0  0  0
    2.1901   -1.0649   -2.0910 H   0  0  0  0  0  0  0  0  0  0  0  0
    3.8478   -0.4783   -1.8130 H   0  0  0  0  0  0  0  0  0  0  0  0
    0.2057   -1.8276    0.3170 H   0  0  0  0  0  0  0  0  0  0  0  0
   -3.4421   -1.5547    0.7543 H   0  0  0  0  0  0  0  0  0  0  0  0
   -1.3158   -3.1782   -0.7193 H   0  0  0  0  0  0  0  0  0  0  0  0
   -2.9455   -3.7474   -0.1184 H   0  0  0  0  0  0  0  0  0  0  0  0
  1  2  2  0  0  0  0
  2  3  1  0  0  0  0
  3  4  4  0  0  0  0
  4  5  4  0  0  0  0
  5  6  4  0  0  0  0
  6  7  1  0  0  0  0
  7  8  1  0  0  0  0
  7  9  2  0  0  0  0
  7 10  2  0  0  0  0
  6 11  4  0  0  0  0
  3 12  4  0  0  0  0
 11 12  4  0  0  0  0
 12 13  1  0  0  0  0
 13 14  2  0  0  0  0
  1 15  1  0  0  0  0
  1 16  1  0  0  0  0
  2 17  1  0  0  0  0
  4 18  1  0  0  0  0
  5 19  1  0  0  0  0
  8 20  1  0  0  0  0
  8 21  1  0  0  0  0
  8 22  1  0  0  0  0
 11 23  1  0  0  0  0
 13 24  1  0  0  0  0
 14 25  1  0  0  0  0
 14 26  1  0  0  0  0
M  END
