
  xtb     02032211123D
 xtb: 6.4.1 (23d549d)
 33 34  0     0  0            999 V2000
    3.3447   -3.4384    0.9729 c   0  0  0  0  0  0  0  0  0  0  0  0
    3.3392   -3.5071   -0.3550 c   0  0  0  0  0  0  0  0  0  0  0  0
    3.4200   -2.3767   -1.2390 c   0  0  0  0  0  0  0  0  0  0  0  0
    3.4239   -2.3960   -2.6060 c   0  0  0  0  0  0  0  0  0  0  0  0
    3.5214   -1.1278   -3.2289 c   0  0  0  0  0  0  0  0  0  0  0  0
    3.4911   -1.0966   -4.7410 c   0  0  0  0  0  0  0  0  0  0  0  0
    2.2055   -1.7662   -5.2636 c   0  0  0  0  0  0  0  0  0  0  0  0
    0.9851   -0.8826   -5.0326 c   0  0  0  0  0  0  0  0  0  0  0  0
    1.1504    0.4394   -5.7724 c   0  0  0  0  0  0  0  0  0  0  0  0
    2.4038    1.1488   -5.2740 c   0  0  0  0  0  0  0  0  0  0  0  0
    3.6323    0.2571   -5.4425 c   0  0  0  0  0  0  0  0  0  0  0  0
    3.6233   -0.1175   -2.2973 c   0  0  0  0  0  0  0  0  0  0  0  0
    3.8393    1.3067   -2.4169 c   0  0  0  0  0  0  0  0  0  0  0  0
    3.5085    2.1916   -1.4811 c   0  0  0  0  0  0  0  0  0  0  0  0
    3.5416   -0.7469   -0.6659 s   0  0  0  0  0  0  0  0  0  0  0  0
    3.2847   -4.3198    1.5863 h   0  0  0  0  0  0  0  0  0  0  0  0
    3.4096   -2.4920    1.4843 h   0  0  0  0  0  0  0  0  0  0  0  0
    3.2732   -4.4657   -0.8548 h   0  0  0  0  0  0  0  0  0  0  0  0
    3.3786   -3.3191   -3.1582 h   0  0  0  0  0  0  0  0  0  0  0  0
    4.3392   -1.7195   -5.0618 h   0  0  0  0  0  0  0  0  0  0  0  0
    2.0531   -2.7337   -4.7853 h   0  0  0  0  0  0  0  0  0  0  0  0
    2.3197   -1.9417   -6.3365 h   0  0  0  0  0  0  0  0  0  0  0  0
    0.8714   -0.6911   -3.9630 h   0  0  0  0  0  0  0  0  0  0  0  0
    0.0872   -1.3985   -5.3799 h   0  0  0  0  0  0  0  0  0  0  0  0
    0.2763    1.0739   -5.6127 h   0  0  0  0  0  0  0  0  0  0  0  0
    1.2341    0.2476   -6.8453 h   0  0  0  0  0  0  0  0  0  0  0  0
    2.2638    1.4036   -4.2231 h   0  0  0  0  0  0  0  0  0  0  0  0
    2.5544    2.0786   -5.8278 h   0  0  0  0  0  0  0  0  0  0  0  0
    4.5351    0.7675   -5.1050 h   0  0  0  0  0  0  0  0  0  0  0  0
    3.7653    0.0559   -6.5097 h   0  0  0  0  0  0  0  0  0  0  0  0
    4.3381    1.6477   -3.3111 h   0  0  0  0  0  0  0  0  0  0  0  0
    3.0111    1.8968   -0.5718 h   0  0  0  0  0  0  0  0  0  0  0  0
    3.7200    3.2399   -1.5985 h   0  0  0  0  0  0  0  0  0  0  0  0
  1  2  2  0  0  0  0
  2  3  1  0  0  0  0
  3  4  2  0  0  0  0
  4  5  4  0  0  0  0
  5  6  1  0  0  0  0
  6  7  1  0  0  0  0
  7  8  1  0  0  0  0
  8  9  1  0  0  0  0
  9 10  1  0  0  0  0
  6 11  1  0  0  0  0
 10 11  1  0  0  0  0
  5 12  2  0  0  0  0
 12 13  1  0  0  0  0
 13 14  2  0  0  0  0
  3 15  1  0  0  0  0
 12 15  1  0  0  0  0
  1 16  1  0  0  0  0
  1 17  1  0  0  0  0
  2 18  1  0  0  0  0
  4 19  1  0  0  0  0
  6 20  1  0  0  0  0
  7 21  1  0  0  0  0
  7 22  1  0  0  0  0
  8 23  1  0  0  0  0
  8 24  1  0  0  0  0
  9 25  1  0  0  0  0
  9 26  1  0  0  0  0
 10 27  1  0  0  0  0
 10 28  1  0  0  0  0
 11 29  1  0  0  0  0
 11 30  1  0  0  0  0
 13 31  1  0  0  0  0
 14 32  1  0  0  0  0
 14 33  1  0  0  0  0
M  END
