19

C         -1.12270       -2.72050       -0.00610
C         -0.58810       -1.31870       -0.00270
C         -1.45990       -0.21760       -0.00020
C         -0.95070        1.09100        0.00090
C         -1.87220        2.27470        0.00290
C          0.43680        1.29310       -0.00030
C          1.31240        0.19780       -0.00210
O          2.64800        0.38370       -0.00350
C          0.79800       -1.10310       -0.00300
H         -2.23350       -2.73380       -0.00600
H         -0.76520       -3.25920        0.89660
H         -0.76590       -3.25300       -0.91270
H         -2.53140       -0.37860        0.00020
H         -2.93830        1.96260        0.00470
H         -1.68820        2.89150       -0.90190
H         -1.68490        2.89110        0.90730
H          0.83540        2.30060        0.00020
H          3.04380        1.26720       -0.00420
H          1.47800       -1.94670       -0.00470
