
 OpenBabel02012214103D

 19 19  0  0  0  0  0  0  0  0999 V2000
   -1.1241   -2.7157   -0.0093 C   0  0  0  0  0  0  0  0  0  0  0  0
   -0.5863   -1.3161   -0.0001 C   0  0  0  0  0  0  0  0  0  0  0  0
   -1.4467   -0.2101    0.0025 C   0  0  0  0  0  0  0  0  0  0  0  0
   -0.9367    1.0977    0.0002 C   0  0  0  0  0  0  0  0  0  0  0  0
   -1.8619    2.2787    0.0023 C   0  0  0  0  0  0  0  0  0  0  0  0
    0.4510    1.2916   -0.0042 C   0  0  0  0  0  0  0  0  0  0  0  0
    1.3026    0.1903   -0.0023 C   0  0  0  0  0  0  0  0  0  0  0  0
    2.6591    0.3370   -0.0044 O   0  0  0  0  0  0  0  0  0  0  0  0
    0.7969   -1.1038    0.0006 C   0  0  0  0  0  0  0  0  0  0  0  0
   -2.2189   -2.7260   -0.0078 H   0  0  0  0  0  0  0  0  0  0  0  0
   -0.7813   -3.2577    0.8778 H   0  0  0  0  0  0  0  0  0  0  0  0
   -0.7846   -3.2420   -0.9072 H   0  0  0  0  0  0  0  0  0  0  0  0
   -2.5236   -0.3674    0.0049 H   0  0  0  0  0  0  0  0  0  0  0  0
   -2.9117    1.9667    0.0065 H   0  0  0  0  0  0  0  0  0  0  0  0
   -1.6977    2.8888   -0.8916 H   0  0  0  0  0  0  0  0  0  0  0  0
   -1.6914    2.8903    0.8941 H   0  0  0  0  0  0  0  0  0  0  0  0
    0.8512    2.3010   -0.0095 H   0  0  0  0  0  0  0  0  0  0  0  0
    2.8673    1.2852   -0.0072 H   0  0  0  0  0  0  0  0  0  0  0  0
    1.4841   -1.9458    0.0017 H   0  0  0  0  0  0  0  0  0  0  0  0
  1  2  1  0  0  0  0
  1 10  1  0  0  0  0
  1 11  1  0  0  0  0
  1 12  1  0  0  0  0
  2  3  1  0  0  0  0
  2  9  2  0  0  0  0
  3  4  2  0  0  0  0
  3 13  1  0  0  0  0
  4  5  1  0  0  0  0
  4  6  1  0  0  0  0
  5 14  1  0  0  0  0
  5 15  1  0  0  0  0
  5 16  1  0  0  0  0
  6  7  2  0  0  0  0
  6 17  1  0  0  0  0
  7  8  1  0  0  0  0
  7  9  1  0  0  0  0
  8 18  1  0  0  0  0
  9 19  1  0  0  0  0
M  END
