
 OpenBabel02012214103D

 19 19  0  0  0  0  0  0  0  0999 V2000
   -1.1227   -2.7205   -0.0061 C   0  0  0  0  0  0  0  0  0  0  0  0
   -0.5881   -1.3187   -0.0027 C   0  0  0  0  0  0  0  0  0  0  0  0
   -1.4599   -0.2176   -0.0002 C   0  0  0  0  0  0  0  0  0  0  0  0
   -0.9507    1.0910    0.0009 C   0  0  0  0  0  0  0  0  0  0  0  0
   -1.8722    2.2747    0.0029 C   0  0  0  0  0  0  0  0  0  0  0  0
    0.4368    1.2931   -0.0003 C   0  0  0  0  0  0  0  0  0  0  0  0
    1.3124    0.1978   -0.0021 C   0  0  0  0  0  0  0  0  0  0  0  0
    2.6480    0.3837   -0.0035 O   0  0  0  0  0  0  0  0  0  0  0  0
    0.7980   -1.1031   -0.0030 C   0  0  0  0  0  0  0  0  0  0  0  0
   -2.2335   -2.7338   -0.0060 H   0  0  0  0  0  0  0  0  0  0  0  0
   -0.7652   -3.2592    0.8966 H   0  0  0  0  0  0  0  0  0  0  0  0
   -0.7659   -3.2530   -0.9127 H   0  0  0  0  0  0  0  0  0  0  0  0
   -2.5314   -0.3786    0.0002 H   0  0  0  0  0  0  0  0  0  0  0  0
   -2.9383    1.9626    0.0047 H   0  0  0  0  0  0  0  0  0  0  0  0
   -1.6882    2.8915   -0.9019 H   0  0  0  0  0  0  0  0  0  0  0  0
   -1.6849    2.8911    0.9073 H   0  0  0  0  0  0  0  0  0  0  0  0
    0.8354    2.3006    0.0002 H   0  0  0  0  0  0  0  0  0  0  0  0
    3.0438    1.2672   -0.0042 H   0  0  0  0  0  0  0  0  0  0  0  0
    1.4780   -1.9467   -0.0047 H   0  0  0  0  0  0  0  0  0  0  0  0
  1  2  1  0  0  0  0
  1 10  1  0  0  0  0
  1 11  1  0  0  0  0
  1 12  1  0  0  0  0
  2  3  1  0  0  0  0
  2  9  2  0  0  0  0
  3  4  2  0  0  0  0
  3 13  1  0  0  0  0
  4  5  1  0  0  0  0
  4  6  1  0  0  0  0
  5 14  1  0  0  0  0
  5 15  1  0  0  0  0
  5 16  1  0  0  0  0
  6  7  2  0  0  0  0
  6 17  1  0  0  0  0
  7  8  1  0  0  0  0
  7  9  1  0  0  0  0
  8 18  1  0  0  0  0
  9 19  1  0  0  0  0
M  END
