
 OpenBabel02012214063D

 20 20  0  0  0  0  0  0  0  0999 V2000
   -2.8245    0.0603   -0.0514 C   0  0  0  0  0  0  0  0  0  0  0  0
   -1.3270    0.0729   -0.0386 C   0  0  0  0  0  0  0  0  0  0  0  0
   -0.6103    1.2739   -0.0792 C   0  0  0  0  0  0  0  0  0  0  0  0
    0.8044    1.2806   -0.0593 C   0  0  0  0  0  0  0  0  0  0  0  0
    1.5197    2.6114   -0.0864 C   0  0  0  0  0  0  0  0  0  0  0  0
    2.7141    2.6824    0.1352 O   0  0  0  0  0  0  0  0  0  0  0  0
    0.8783    3.7782   -0.3367 O   0  0  0  0  0  0  0  0  0  0  0  0
    1.4688    0.0085    0.0007 C   0  0  0  0  0  0  0  0  0  0  0  0
    2.9642   -0.2260    0.0077 C   0  0  0  0  0  0  0  0  0  0  0  0
    0.6897   -1.1617    0.0394 C   0  0  0  0  0  0  0  0  0  0  0  0
   -0.6619   -1.1044    0.0188 N   0  0  0  0  0  0  0  0  0  0  0  0
   -3.2451    1.0878   -0.0962 H   0  0  0  0  0  0  0  0  0  0  0  0
   -3.1981   -0.4331    0.8701 H   0  0  0  0  0  0  0  0  0  0  0  0
   -3.1824   -0.5059   -0.9368 H   0  0  0  0  0  0  0  0  0  0  0  0
   -1.1819    2.1861   -0.1100 H   0  0  0  0  0  0  0  0  0  0  0  0
   -0.0473    3.8658   -0.5894 H   0  0  0  0  0  0  0  0  0  0  0  0
    3.6069    0.6588   -0.0662 H   0  0  0  0  0  0  0  0  0  0  0  0
    3.2315   -0.8667   -0.8594 H   0  0  0  0  0  0  0  0  0  0  0  0
    3.2467   -0.7610    0.9393 H   0  0  0  0  0  0  0  0  0  0  0  0
    1.1656   -2.1340    0.0804 H   0  0  0  0  0  0  0  0  0  0  0  0
  1  2  1  0  0  0  0
  1 12  1  0  0  0  0
  1 13  1  0  0  0  0
  1 14  1  0  0  0  0
  2  3  1  0  0  0  0
  2 11  2  0  0  0  0
  3  4  2  0  0  0  0
  3 15  1  0  0  0  0
  4  5  1  0  0  0  0
  4  8  1  0  0  0  0
  5  6  2  0  0  0  0
  5  7  1  0  0  0  0
  7 16  1  0  0  0  0
  8  9  1  0  0  0  0
  8 10  2  0  0  0  0
  9 17  1  0  0  0  0
  9 18  1  0  0  0  0
  9 19  1  0  0  0  0
 10 11  1  0  0  0  0
 10 20  1  0  0  0  0
M  END
