
  xtb     02032211353D
 xtb: 6.4.1 (23d549d)
 53 53  0     0  0            999 V2000
    4.0911   -0.0591   -1.4053 C   0  0  0  0  0  0  0  0  0  0  0  0
    2.8362    0.3641   -1.5328 C   0  0  0  0  0  0  0  0  0  0  0  0
    1.7234   -0.1187   -0.7607 C   0  0  0  0  0  0  0  0  0  0  0  0
    1.9353   -1.4545    0.3315 S   0  0  0  0  0  0  0  0  0  0  0  0
    0.2589   -1.4082    0.7916 C   0  0  0  0  0  0  0  0  0  0  0  0
   -0.2424   -2.3323    1.7729 C   0  0  0  0  0  0  0  0  0  0  0  0
    0.4598   -3.3276    2.3084 C   0  0  0  0  0  0  0  0  0  0  0  0
   -0.4155   -0.4092    0.1232 C   0  0  0  0  0  0  0  0  0  0  0  0
   -1.8896   -0.1656    0.2444 C   0  0  0  0  0  0  0  0  0  0  0  0
   -2.6756   -0.8810   -0.8677 C   0  0  0  0  0  0  0  0  0  0  0  0
   -2.7124   -2.4016   -0.7107 C   0  0  0  0  0  0  0  0  0  0  0  0
   -3.6965   -2.8916    0.3536 C   0  0  0  0  0  0  0  0  0  0  0  0
   -5.1514   -2.8423   -0.1089 C   0  0  0  0  0  0  0  0  0  0  0  0
   -6.1014   -3.3490    0.9695 C   0  0  0  0  0  0  0  0  0  0  0  0
    0.4201    0.3290   -0.7559 C   0  0  0  0  0  0  0  0  0  0  0  0
   -0.0555    1.5197   -1.5328 C   0  0  0  0  0  0  0  0  0  0  0  0
   -0.0070    2.8053   -0.6918 C   0  0  0  0  0  0  0  0  0  0  0  0
    1.4153    3.2364   -0.3478 C   0  0  0  0  0  0  0  0  0  0  0  0
    1.4322    4.5143    0.4878 C   0  0  0  0  0  0  0  0  0  0  0  0
    2.8317    4.8972    0.9697 C   0  0  0  0  0  0  0  0  0  0  0  0
    3.7768    5.2733   -0.1656 C   0  0  0  0  0  0  0  0  0  0  0  0
    4.8845    0.3343   -2.0159 H   0  0  0  0  0  0  0  0  0  0  0  0
    4.3614   -0.8120   -0.6836 H   0  0  0  0  0  0  0  0  0  0  0  0
    2.6023    1.1268   -2.2630 H   0  0  0  0  0  0  0  0  0  0  0  0
   -1.2681   -2.1809    2.0790 H   0  0  0  0  0  0  0  0  0  0  0  0
    1.4820   -3.5139    2.0233 H   0  0  0  0  0  0  0  0  0  0  0  0
    0.0338   -3.9857    3.0448 H   0  0  0  0  0  0  0  0  0  0  0  0
   -2.0854    0.9056    0.1752 H   0  0  0  0  0  0  0  0  0  0  0  0
   -2.2486   -0.4993    1.2177 H   0  0  0  0  0  0  0  0  0  0  0  0
   -2.2164   -0.6415   -1.8293 H   0  0  0  0  0  0  0  0  0  0  0  0
   -3.6947   -0.4903   -0.8828 H   0  0  0  0  0  0  0  0  0  0  0  0
   -1.7081   -2.7529   -0.4655 H   0  0  0  0  0  0  0  0  0  0  0  0
   -2.9884   -2.8495   -1.6684 H   0  0  0  0  0  0  0  0  0  0  0  0
   -3.5939   -2.2936    1.2613 H   0  0  0  0  0  0  0  0  0  0  0  0
   -3.4483   -3.9235    0.6132 H   0  0  0  0  0  0  0  0  0  0  0  0
   -5.2634   -3.4543   -1.0071 H   0  0  0  0  0  0  0  0  0  0  0  0
   -5.4230   -1.8180   -0.3714 H   0  0  0  0  0  0  0  0  0  0  0  0
   -5.8644   -4.3774    1.2341 H   0  0  0  0  0  0  0  0  0  0  0  0
   -7.1314   -3.3129    0.6219 H   0  0  0  0  0  0  0  0  0  0  0  0
   -6.0212   -2.7389    1.8670 H   0  0  0  0  0  0  0  0  0  0  0  0
   -1.0828    1.3542   -1.8607 H   0  0  0  0  0  0  0  0  0  0  0  0
    0.5557    1.6557   -2.4261 H   0  0  0  0  0  0  0  0  0  0  0  0
   -0.5666    2.6534    0.2342 H   0  0  0  0  0  0  0  0  0  0  0  0
   -0.4994    3.6055   -1.2504 H   0  0  0  0  0  0  0  0  0  0  0  0
    1.9716    3.3979   -1.2723 H   0  0  0  0  0  0  0  0  0  0  0  0
    1.9126    2.4387    0.2080 H   0  0  0  0  0  0  0  0  0  0  0  0
    0.7900    4.3722    1.3610 H   0  0  0  0  0  0  0  0  0  0  0  0
    1.0143    5.3371   -0.0979 H   0  0  0  0  0  0  0  0  0  0  0  0
    3.2573    4.0635    1.5328 H   0  0  0  0  0  0  0  0  0  0  0  0
    2.7437    5.7464    1.6519 H   0  0  0  0  0  0  0  0  0  0  0  0
    3.9832    4.4160   -0.8008 H   0  0  0  0  0  0  0  0  0  0  0  0
    4.7226    5.6318    0.2347 H   0  0  0  0  0  0  0  0  0  0  0  0
    3.3430    6.0620   -0.7769 H   0  0  0  0  0  0  0  0  0  0  0  0
  1  2  2  0  0  0  0
  2  3  1  0  0  0  0
  3  4  1  0  0  0  0
  4  5  1  0  0  0  0
  5  6  1  0  0  0  0
  6  7  2  0  0  0  0
  5  8  4  0  0  0  0
  8  9  1  0  0  0  0
  9 10  1  0  0  0  0
 10 11  1  0  0  0  0
 11 12  1  0  0  0  0
 12 13  1  0  0  0  0
 13 14  1  0  0  0  0
  3 15  4  0  0  0  0
  8 15  4  0  0  0  0
 15 16  1  0  0  0  0
 16 17  1  0  0  0  0
 17 18  1  0  0  0  0
 18 19  1  0  0  0  0
 19 20  1  0  0  0  0
 20 21  1  0  0  0  0
  1 22  1  0  0  0  0
  1 23  1  0  0  0  0
  2 24  1  0  0  0  0
  6 25  1  0  0  0  0
  7 26  1  0  0  0  0
  7 27  1  0  0  0  0
  9 28  1  0  0  0  0
  9 29  1  0  0  0  0
 10 30  1  0  0  0  0
 10 31  1  0  0  0  0
 11 32  1  0  0  0  0
 11 33  1  0  0  0  0
 12 34  1  0  0  0  0
 12 35  1  0  0  0  0
 13 36  1  0  0  0  0
 13 37  1  0  0  0  0
 14 38  1  0  0  0  0
 14 39  1  0  0  0  0
 14 40  1  0  0  0  0
 16 41  1  0  0  0  0
 16 42  1  0  0  0  0
 17 43  1  0  0  0  0
 17 44  1  0  0  0  0
 18 45  1  0  0  0  0
 18 46  1  0  0  0  0
 19 47  1  0  0  0  0
 19 48  1  0  0  0  0
 20 49  1  0  0  0  0
 20 50  1  0  0  0  0
 21 51  1  0  0  0  0
 21 52  1  0  0  0  0
 21 53  1  0  0  0  0
M  END
