15

C         -2.69760        0.22830       -0.01980
C         -1.24190       -0.09790       -0.01370
S          0.00820        1.02930       -0.00730
C          1.24690       -0.11030       -0.00320
C          2.70580        0.20120        0.00290
C          0.69590       -1.38600       -0.00660
C         -0.70370       -1.37890       -0.01240
H         -2.84630        1.32840       -0.01940
H         -3.17960       -0.20160        0.88290
H         -3.17140       -0.19960       -0.92780
H          2.86540        1.29980        0.00450
H          3.18290       -0.23150       -0.90100
H          3.17590       -0.23320        0.90970
H          1.28570       -2.29330       -0.00490
H         -1.30260       -2.28040       -0.01580
