
 OpenBabel02012213463D

 15 15  0  0  0  0  0  0  0  0999 V2000
   -2.6663    0.2631   -0.0240 C   0  0  0  0  0  0  0  0  0  0  0  0
   -1.2346   -0.1490   -0.0057 C   0  0  0  0  0  0  0  0  0  0  0  0
    0.0062    1.0281   -0.0011 S   0  0  0  0  0  0  0  0  0  0  0  0
    1.2343   -0.1610   -0.0012 C   0  0  0  0  0  0  0  0  0  0  0  0
    2.6710    0.2343   -0.0018 C   0  0  0  0  0  0  0  0  0  0  0  0
    0.7056   -1.4352   -0.0020 C   0  0  0  0  0  0  0  0  0  0  0  0
   -0.7187   -1.4282    0.0039 C   0  0  0  0  0  0  0  0  0  0  0  0
   -2.7892    1.3507   -0.0054 H   0  0  0  0  0  0  0  0  0  0  0  0
   -3.1909   -0.1487    0.8449 H   0  0  0  0  0  0  0  0  0  0  0  0
   -3.1536   -0.1138   -0.9292 H   0  0  0  0  0  0  0  0  0  0  0  0
    2.8068    1.3205    0.0040 H   0  0  0  0  0  0  0  0  0  0  0  0
    3.1702   -0.1623   -0.8920 H   0  0  0  0  0  0  0  0  0  0  0  0
    3.1735   -0.1717    0.8824 H   0  0  0  0  0  0  0  0  0  0  0  0
    1.3121   -2.3328   -0.0064 H   0  0  0  0  0  0  0  0  0  0  0  0
   -1.3343   -2.3203    0.0100 H   0  0  0  0  0  0  0  0  0  0  0  0
  1  2  1  0  0  0  0
  1  8  1  0  0  0  0
  1  9  1  0  0  0  0
  1 10  1  0  0  0  0
  2  3  1  0  0  0  0
  2  7  2  0  0  0  0
  3  4  1  0  0  0  0
  4  5  1  0  0  0  0
  4  6  2  0  0  0  0
  5 11  1  0  0  0  0
  5 12  1  0  0  0  0
  5 13  1  0  0  0  0
  6  7  1  0  0  0  0
  6 14  1  0  0  0  0
  7 15  1  0  0  0  0
M  END
