39

C          4.66342        3.09703       -5.27695
C          4.11216        1.88420       -4.53239
C          4.78536        1.72552       -3.16478
C          6.30220        1.55401       -3.31249
C          6.96561        1.37848       -1.94151
C          6.69770        2.59150       -1.03670
C          7.22090        3.90600       -1.63850
C          8.73620        3.88890       -1.90360
C          9.12186        2.80840       -2.88231
C          8.62512        2.77768       -4.19672
C          9.08732        1.69596       -4.93544
C          8.74852        1.39315       -6.35653
S         10.09686        0.76230       -3.97280
C          9.96808        1.72588       -2.59901
C         10.63243        1.40498       -1.29589
H          4.15975        3.18987       -6.26209
H          5.75540        2.98223       -5.44546
H          4.47970        4.02460       -4.69384
H          4.29331        0.97506       -5.14643
H          3.01608        2.01146       -4.39664
H          4.36189        0.83591       -2.64790
H          4.57901        2.62892       -2.54899
H          6.72254        2.45510       -3.81183
H          6.51691        0.66241       -3.94201
H          8.05686        1.24212       -2.09076
H          6.55262        0.46800       -1.45325
H          7.23092        2.42876       -0.07411
H          5.61089        2.68111       -0.81969
H          6.93300        4.73500       -0.96680
H          6.70800        4.06660       -2.61250
H          9.23607        3.69745       -0.92840
H          9.10839        4.85766       -2.29318
H          7.95217        3.52461       -4.59881
H          8.06231        2.16293       -6.76829
H          8.25551        0.40078       -6.41655
H          9.67789        1.37752       -6.96289
H         11.19410        0.45085       -1.37913
H          9.86411        1.29536       -0.50220
H         11.35261        2.19310       -1.01032
39

C          5.46106        6.07299        1.91685
C          5.10303        4.70267        2.48539
C          5.49970        3.58405        1.51582
C          4.79191        3.74723        0.16509
C          5.18053        2.61492       -0.79270
C          6.69770        2.59150       -1.03670
C          7.22090        3.90600       -1.63850
C          8.73620        3.88890       -1.90360
C          9.12186        2.80840       -2.88231
C          8.62512        2.77768       -4.19672
C          9.08732        1.69596       -4.93544
C          8.74852        1.39315       -6.35653
S         10.09686        0.76230       -3.97280
C          9.96808        1.72588       -2.59901
C         10.63243        1.40498       -1.29589
H          5.16479        6.86414        2.63734
H          4.92463        6.24517        0.95946
H          6.55549        6.14381        1.73978
H          4.00700        4.66724        2.66942
H          5.63274        4.56363        3.45291
H          5.22751        2.60036        1.95872
H          6.60044        3.61220        1.35620
H          5.08352        4.72349       -0.28199
H          3.69017        3.73787        0.31811
H          4.63804        2.75882       -1.75014
H          4.87327        1.64261       -0.34759
H          6.91793        1.77950       -1.76439
H          7.23913        2.36616       -0.09205
H          6.93300        4.73500       -0.96680
H          6.70800        4.06660       -2.61250
H          9.23607        3.69745       -0.92840
H          9.10839        4.85766       -2.29318
H          7.95217        3.52461       -4.59881
H          8.06231        2.16293       -6.76829
H          8.25551        0.40078       -6.41655
H          9.67789        1.37752       -6.96289
H         11.19410        0.45085       -1.37913
H          9.86411        1.29536       -0.50220
H         11.35261        2.19310       -1.01032
39

C          2.92331        5.36474       -1.50915
C          2.53040        4.01844       -0.90725
C          2.90128        2.86628       -1.84730
C          4.41297        2.82683       -2.10283
C          5.18053        2.61492       -0.79270
C          6.69770        2.59150       -1.03670
C          7.22090        3.90600       -1.63850
C          8.73620        3.88890       -1.90360
C          9.12186        2.80840       -2.88231
C         10.37274        2.16921       -2.83631
C         10.54060        1.21426       -3.83096
C         11.74969        0.36529       -4.03914
S          9.15877        1.16080       -4.78240
C          8.31909        2.34963       -3.93743
C          6.95630        2.83545       -4.32373
H          2.64521        6.18088       -0.80959
H          2.39325        5.52588       -2.47199
H          4.01952        5.40409       -1.68504
H          1.43346        4.01468       -0.72530
H          3.05454        3.89085        0.06487
H          2.36665        2.99472       -2.81453
H          2.58404        1.90370       -1.38828
H          4.72872        3.78964       -2.56250
H          4.65051        1.99874       -2.80652
H          4.84817        1.65864       -0.33799
H          4.94185        3.44759       -0.09439
H          6.91793        1.77950       -1.76439
H          7.23913        2.36616       -0.09205
H          6.93300        4.73500       -0.96680
H          6.70800        4.06660       -2.61250
H          9.23607        3.69745       -0.92840
H          9.10839        4.85766       -2.29318
H         11.13135        2.39308       -2.09683
H         12.52431        0.59304       -3.27686
H         12.16864        0.55828       -5.04844
H         11.46819       -0.70516       -3.95813
H          6.60872        2.30898       -5.23740
H          6.99437        3.92447       -4.53557
H          6.22032        2.63757       -3.52340
39

C          9.33166       -0.67962        1.06329
C          8.64040       -0.37926       -0.26379
C          7.12806       -0.22083       -0.07286
C          6.81009        0.93908        0.87874
C          7.34282        2.26324        0.31901
C          6.69770        2.59150       -1.03670
C          7.22090        3.90600       -1.63850
C          8.73620        3.88890       -1.90360
C          9.12186        2.80840       -2.88231
C         10.01252        1.77532       -2.54340
C         10.25032        0.88857       -3.58579
C         11.13760       -0.30982       -3.53501
S          9.37956        1.37773       -4.93489
C          8.67792        2.72508       -4.21053
C          7.77148        3.67550       -4.92992
H         10.42415       -0.78873        0.89787
H          8.94142       -1.62552        1.49570
H          9.16119        0.14862        1.78379
H          8.84308       -1.21432       -0.96948
H          9.06356        0.55752       -0.68735
H          6.70939       -1.16433        0.34238
H          6.65397       -0.02298       -1.05977
H          7.28410        0.73959        1.86541
H          5.70921        1.01516        1.01880
H          8.44482        2.18537        0.21303
H          7.10712        3.08054        1.03623
H          5.60280        2.70837       -0.87885
H          6.85701        1.75725       -1.75429
H          6.93300        4.73500       -0.96680
H          6.70800        4.06660       -2.61250
H          9.23607        3.69745       -0.92840
H          9.10839        4.85766       -2.29318
H         10.46666        1.67467       -1.56562
H         11.59837       -0.41387       -2.53010
H         11.94228       -0.20743       -4.29230
H         10.54210       -1.22027       -3.75438
H          7.65372        3.36246       -5.98865
H          8.20807        4.69591       -4.90899
H          6.76573        3.69163       -4.47217
39

C          7.27572       -1.85868        1.86275
C          6.93183       -0.70267        2.79793
C          7.44612        0.62855        2.23928
C          6.81009        0.93908        0.87874
C          7.34282        2.26324        0.31901
C          6.69770        2.59150       -1.03670
C          7.22090        3.90600       -1.63850
C          8.73620        3.88890       -1.90360
C          9.12186        2.80840       -2.88231
C         10.37274        2.16921       -2.83631
C         10.54060        1.21426       -3.83096
C         11.74969        0.36529       -4.03914
S          9.15877        1.16080       -4.78240
C          8.31909        2.34963       -3.93743
C          6.95630        2.83545       -4.32373
H          6.89216       -2.80942        2.28911
H          8.37681       -1.94207        1.74175
H          6.81002       -1.70127        0.86650
H          7.39466       -0.89586        3.79033
H          5.82800       -0.65438        2.92148
H          8.55181        0.57706        2.12672
H          7.19684        1.44493        2.95293
H          5.70643        1.00910        1.00141
H          7.03993        0.11842        0.16387
H          8.44482        2.18537        0.21303
H          7.10712        3.08054        1.03623
H          5.60280        2.70837       -0.87885
H          6.85701        1.75725       -1.75429
H          6.93300        4.73500       -0.96680
H          6.70800        4.06660       -2.61250
H          9.23607        3.69745       -0.92840
H          9.10839        4.85766       -2.29318
H         11.13135        2.39308       -2.09683
H         12.52431        0.59304       -3.27686
H         12.16864        0.55828       -5.04844
H         11.46819       -0.70516       -3.95813
H          6.60872        2.30898       -5.23740
H          6.99437        3.92447       -4.53557
H          6.22032        2.63757       -3.52340
39

C          4.67282       -0.90189       -3.37876
C          4.36102        0.28314       -2.46899
C          5.02570        0.11434       -1.09843
C          4.69906        1.29599       -0.17698
C          5.18053        2.61492       -0.79270
C          6.69770        2.59150       -1.03670
C          7.22090        3.90600       -1.63850
C          8.73620        3.88890       -1.90360
C          9.21971        5.19710       -2.47710
C          8.72350        5.71243       -3.68690
C          9.30533        6.91990       -4.05149
C          8.98562        7.71646       -5.27185
S         10.44422        7.35359       -2.89719
C         10.20958        6.01232       -1.90809
C         10.99407        5.75616       -0.65853
H          4.18140       -0.75488       -4.36349
H          4.29258       -1.84370       -2.92885
H          5.76893       -0.98957       -3.53692
H          3.25866        0.35733       -2.34373
H          4.72967        1.21486       -2.95068
H          6.12809        0.04339       -1.23103
H          4.66065       -0.82586       -0.62868
H          5.20275        1.14213        0.80313
H          3.60028        1.34675       -0.01126
H          4.91302        3.44493       -0.10625
H          4.66272        2.77099       -1.76504
H          6.91793        1.77950       -1.76439
H          7.23913        2.36616       -0.09205
H          6.93300        4.73500       -0.96680
H          6.70800        4.06660       -2.61250
H          8.93061        3.07272       -2.63408
H          9.32334        3.67424       -0.98819
H          7.95949        5.22172       -4.27675
H          8.19854        7.21394       -5.87265
H          9.89891        7.82597       -5.89263
H          8.62358        8.72197       -4.97264
H         11.74070        6.56345       -0.50494
H         11.53165        4.78896       -0.74694
H         10.33581        5.73624        0.22896
39

C          9.33166       -0.67962        1.06329
C          8.64040       -0.37926       -0.26379
C          7.12806       -0.22083       -0.07286
C          6.81009        0.93908        0.87874
C          7.34282        2.26324        0.31901
C          6.69770        2.59150       -1.03670
C          7.22090        3.90600       -1.63850
C          8.73620        3.88890       -1.90360
C          9.21971        5.19710       -2.47710
C          9.84378        5.27779       -3.73385
C         10.22859        6.56778       -4.07630
C         10.90361        6.97661       -5.34248
S          9.81822        7.61447       -2.82987
C          9.13550        6.44147       -1.83471
C          8.58592        6.72818       -0.47155
H         10.42415       -0.78873        0.89787
H          8.94142       -1.62552        1.49570
H          9.16119        0.14862        1.78379
H          8.84308       -1.21432       -0.96948
H          9.06356        0.55752       -0.68735
H          6.70939       -1.16433        0.34238
H          6.65397       -0.02298       -1.05977
H          7.28410        0.73959        1.86541
H          5.70921        1.01516        1.01880
H          8.44482        2.18537        0.21303
H          7.10712        3.08054        1.03623
H          5.60280        2.70837       -0.87885
H          6.85701        1.75725       -1.75429
H          6.93300        4.73500       -0.96680
H          6.70800        4.06660       -2.61250
H          8.93061        3.07272       -2.63408
H          9.32334        3.67424       -0.98819
H         10.00589        4.42161       -4.37659
H         11.06443        6.09797       -6.00210
H         11.88599        7.43593       -5.10706
H         10.27179        7.71680       -5.87593
H          8.71159        7.80422       -0.22843
H          9.13297        6.12804        0.28531
H          7.50634        6.49758       -0.41986
39

C          3.50337        2.21219        2.40023
C          2.82127        2.43535        1.05333
C          3.27900        3.75194        0.41630
C          4.79191        3.74723        0.16509
C          5.18053        2.61492       -0.79270
C          6.69770        2.59150       -1.03670
C          7.22090        3.90600       -1.63850
C          8.73620        3.88890       -1.90360
C          9.12186        2.80840       -2.88231
C         10.37274        2.16921       -2.83631
C         10.54060        1.21426       -3.83096
C         11.74969        0.36529       -4.03914
S          9.15877        1.16080       -4.78240
C          8.31909        2.34963       -3.93743
C          6.95630        2.83545       -4.32373
H          3.15598        1.25337        2.83932
H          3.25113        3.03620        3.10121
H          4.60595        2.16680        2.27205
H          1.72058        2.45791        1.20942
H          3.06938        1.58764        0.37817
H          3.01969        4.59676        1.09226
H          2.74926        3.89291       -0.55189
H          5.32041        3.60694        1.13412
H          5.09995        4.72202       -0.27336
H          4.63804        2.75882       -1.75014
H          4.87327        1.64261       -0.34759
H          6.91793        1.77950       -1.76439
H          7.23913        2.36616       -0.09205
H          6.93300        4.73500       -0.96680
H          6.70800        4.06660       -2.61250
H          9.23607        3.69745       -0.92840
H          9.10839        4.85766       -2.29318
H         11.13135        2.39308       -2.09683
H         12.52431        0.59304       -3.27686
H         12.16864        0.55828       -5.04844
H         11.46819       -0.70516       -3.95813
H          6.60872        2.30898       -5.23740
H          6.99437        3.92447       -4.53557
H          6.22032        2.63757       -3.52340
39

C          8.31618       -1.09700       -5.31218
C          8.06177        0.10936       -4.41265
C          6.56011        0.33163       -4.20204
C          6.30220        1.55401       -3.31249
C          6.96561        1.37848       -1.94151
C          6.69770        2.59150       -1.03670
C          7.22090        3.90600       -1.63850
C          8.73620        3.88890       -1.90360
C          9.21971        5.19710       -2.47710
C         10.31759        5.27026       -3.35157
C         10.61392        6.56535       -3.75699
C         11.71119        6.96636       -4.68500
S          9.53819        7.62984       -3.03089
C          8.67070        6.45639       -2.19254
C          7.53545        6.76774       -1.26694
H          9.40931       -1.23648       -5.44789
H          7.85152       -0.93944       -6.30881
H          7.89368       -2.01656       -4.85385
H          8.51050        1.00962       -4.88655
H          8.55530       -0.06165       -3.43122
H          6.11837       -0.57150       -3.72548
H          6.07222        0.48996       -5.18936
H          5.20497        1.67927       -3.17682
H          6.70891        2.46518       -3.80411
H          8.05686        1.24212       -2.09076
H          6.55262        0.46800       -1.45325
H          7.23092        2.42876       -0.07411
H          5.61089        2.68111       -0.81969
H          6.93300        4.73500       -0.96680
H          6.70800        4.06660       -2.61250
H          8.93061        3.07272       -2.63408
H          9.32334        3.67424       -0.98819
H         10.87662        4.40403       -3.68259
H         12.28000        6.07616       -5.02701
H         12.40372        7.65855       -4.16275
H         11.27871        7.47915       -5.56912
H          7.37492        7.86520       -1.21626
H          7.77243        6.39722       -0.24771
H          6.59465        6.30817       -1.62053
39

C          8.95450       -1.52274       -1.22452
C          8.64040       -0.37926       -0.26379
C          7.12806       -0.22083       -0.07286
C          6.81009        0.93908        0.87874
C          7.34282        2.26324        0.31901
C          6.69770        2.59150       -1.03670
C          7.22090        3.90600       -1.63850
C          8.73620        3.88890       -1.90360
C          9.21971        5.19710       -2.47710
C         10.51671        5.68392       -2.24009
C         10.76367        6.91068       -2.84302
C         12.04201        7.67768       -2.78351
S          9.38443        7.41175       -3.65800
C          8.45046        6.06881       -3.26233
C          7.01843        5.90588       -3.66879
H         10.05428       -1.61680       -1.34468
H          8.50383       -1.32432       -2.22027
H          8.55599       -2.48093       -0.82800
H          9.06610        0.56145       -0.67639
H          9.12069       -0.58925        0.71664
H          6.70939       -1.16433        0.34238
H          6.65397       -0.02298       -1.05977
H          7.28410        0.73959        1.86541
H          5.70921        1.01516        1.01880
H          8.44482        2.18537        0.21303
H          7.10712        3.08054        1.03623
H          5.60280        2.70837       -0.87885
H          6.85701        1.75725       -1.75429
H          6.93300        4.73500       -0.96680
H          6.70800        4.06660       -2.61250
H          8.93061        3.07272       -2.63408
H          9.32334        3.67424       -0.98819
H         11.25490        5.15519       -1.65021
H         12.79905        7.13142       -2.18229
H         11.85833        8.66851       -2.31877
H         12.43441        7.82254       -3.81147
H          6.68185        6.79424       -4.24350
H          6.38249        5.80773       -2.76423
H          6.88539        5.01941       -4.31517
