
  xtb     02032211353D
 xtb: 6.4.1 (23d549d)
 21 21  0     0  0            999 V2000
    3.6715   -0.9438   -0.3860 C   0  0  0  0  0  0  0  0  0  0  0  0
    2.5288   -1.2887    0.1955 C   0  0  0  0  0  0  0  0  0  0  0  0
    1.2688   -0.5556    0.1301 C   0  0  0  0  0  0  0  0  0  0  0  0
    0.0722   -1.2566    0.1427 C   0  0  0  0  0  0  0  0  0  0  0  0
   -1.1750   -0.6300    0.0412 C   0  0  0  0  0  0  0  0  0  0  0  0
   -2.3849   -1.4368    0.0451 C   0  0  0  0  0  0  0  0  0  0  0  0
   -3.6421   -1.0149   -0.0321 C   0  0  0  0  0  0  0  0  0  0  0  0
   -1.1035    0.7618   -0.0554 C   0  0  0  0  0  0  0  0  0  0  0  0
   -2.2159    1.5052   -0.1755 F   0  0  0  0  0  0  0  0  0  0  0  0
   -0.0021    1.4669   -0.0189 N   0  0  0  0  0  0  0  0  0  0  0  0
    1.1758    0.8550    0.0736 C   0  0  0  0  0  0  0  0  0  0  0  0
    2.2603    1.6772    0.0959 N   0  0  0  0  0  0  0  0  0  0  0  0
    4.5483   -1.5630   -0.2997 H   0  0  0  0  0  0  0  0  0  0  0  0
    3.7645   -0.0683   -1.0055 H   0  0  0  0  0  0  0  0  0  0  0  0
    2.4754   -2.2217    0.7445 H   0  0  0  0  0  0  0  0  0  0  0  0
    0.1031   -2.3355    0.2140 H   0  0  0  0  0  0  0  0  0  0  0  0
   -2.1917   -2.5009    0.1221 H   0  0  0  0  0  0  0  0  0  0  0  0
   -3.9119    0.0223   -0.1102 H   0  0  0  0  0  0  0  0  0  0  0  0
   -4.4577   -1.7182   -0.0192 H   0  0  0  0  0  0  0  0  0  0  0  0
    2.0443    2.6511    0.2369 H   0  0  0  0  0  0  0  0  0  0  0  0
    3.1071    1.3256    0.5118 H   0  0  0  0  0  0  0  0  0  0  0  0
  1  2  2  0  0  0  0
  2  3  1  0  0  0  0
  3  4  4  0  0  0  0
  4  5  4  0  0  0  0
  5  6  1  0  0  0  0
  6  7  2  0  0  0  0
  5  8  4  0  0  0  0
  8  9  1  0  0  0  0
  8 10  4  0  0  0  0
  3 11  4  0  0  0  0
 10 11  4  0  0  0  0
 11 12  4  0  0  0  0
  1 13  1  0  0  0  0
  1 14  1  0  0  0  0
  2 15  1  0  0  0  0
  4 16  1  0  0  0  0
  6 17  1  0  0  0  0
  7 18  1  0  0  0  0
  7 19  1  0  0  0  0
 12 20  1  0  0  0  0
 12 21  1  0  0  0  0
M  END
