43

C          2.50631        0.01453        0.00918
C          1.00611        0.00367       -0.00457
C          0.29595       -1.20307       -0.02587
C         -1.10137       -1.20082       -0.04005
C         -1.82890        0.01070       -0.03340
N         -3.27800        0.01480       -0.05120
C         -4.00980       -1.23350       -0.07630
C         -5.28658       -1.34609        0.51682
C         -5.98762       -2.55515        0.49010
C         -5.43097       -3.68338       -0.12656
C         -6.17042       -4.98825       -0.15866
C         -4.16723       -3.58743       -0.71900
C         -3.46597       -2.37968       -0.69736
C         -4.00240        1.26750       -0.05010
C         -5.26374        1.38478       -0.67509
C         -5.95926        2.59680       -0.66944
C         -5.41306        3.72411       -0.04222
C         -6.14796        5.03186       -0.03142
C         -4.16436        3.62428        0.58180
C         -3.46862        2.41311        0.58087
C         -1.09513        1.21843       -0.01090
C          0.30206        1.21259        0.00324
H          2.92180       -1.01570        0.00282
H          2.86756        0.53338        0.92182
H          2.88344        0.55071       -0.88709
H          0.82198       -2.14971       -0.03538
H         -1.60860       -2.15535       -0.07336
H         -5.75548       -0.49416        0.99043
H         -6.96641       -2.60779        0.95055
H         -7.15587       -4.91122        0.34829
H         -5.57111       -5.76891        0.35548
H         -6.33937       -5.29560       -1.21224
H         -3.72176       -4.45139       -1.19716
H         -2.48567       -2.35081       -1.15423
H         -5.72532        0.53355       -1.15727
H         -6.92619        2.65234       -1.15402
H         -7.12100        4.95745       -0.56191
H         -5.53309        5.80897       -0.53251
H         -6.34179        5.34217        1.01693
H         -3.72732        4.48754        1.06831
H         -2.50027        2.38053        1.06250
H         -1.59770        2.17570        0.01135
H          0.83691        2.15450        0.02292
43

C          2.50589       -0.01006        0.03719
C          1.00597        0.00485        0.00710
C          0.30941        1.05626       -0.60146
C         -1.08782        1.06017       -0.62206
C         -1.82890        0.01070       -0.03340
N         -3.27800        0.01480       -0.05120
C         -4.00980       -1.23350       -0.07630
C         -5.28658       -1.34609        0.51682
C         -5.98762       -2.55515        0.49010
C         -5.43097       -3.68338       -0.12656
C         -6.17042       -4.98825       -0.15866
C         -4.16723       -3.58743       -0.71900
C         -3.46597       -2.37968       -0.69736
C         -4.00240        1.26750       -0.05010
C         -3.32359        2.50614       -0.03184
C         -4.02860        3.71269       -0.03240
C         -5.42943        3.71465       -0.04855
C         -6.19834        5.00275       -0.04641
C         -6.11688        2.49577       -0.06705
C         -5.41472        1.28831       -0.07026
C         -1.10873       -1.04215        0.57519
C          0.28842       -1.04295        0.59402
H          2.93295        0.88254       -0.46772
H          2.88066       -0.91865       -0.47918
H          2.85753       -0.01945        1.09041
H          0.84594        1.87843       -1.05874
H         -1.58466        1.90021       -1.08790
H         -5.75548       -0.49416        0.99043
H         -6.96641       -2.60779        0.95055
H         -7.15587       -4.91122        0.34829
H         -5.57111       -5.76891        0.35548
H         -6.33937       -5.29560       -1.21224
H         -3.72176       -4.45139       -1.19716
H         -2.48567       -2.35081       -1.15423
H         -2.24262        2.54651       -0.03372
H         -3.47811        4.64527       -0.02242
H         -5.52045        5.88254       -0.03251
H         -6.84939        5.04658        0.85207
H         -6.83131        5.06083       -0.95684
H         -7.19974        2.48055       -0.07657
H         -5.98300        0.36756       -0.07123
H         -1.62165       -1.87991        1.02742
H          0.81273       -1.86518        1.06591
43

C          2.50589       -0.01006        0.03719
C          1.00597        0.00485        0.00710
C          0.30941        1.05626       -0.60146
C         -1.08782        1.06017       -0.62206
C         -1.82890        0.01070       -0.03340
N         -3.27800        0.01480       -0.05120
C         -4.00980       -1.23350       -0.07630
C         -5.28658       -1.34609        0.51682
C         -5.98762       -2.55515        0.49010
C         -5.43097       -3.68338       -0.12656
C         -6.17042       -4.98825       -0.15866
C         -4.16723       -3.58743       -0.71900
C         -3.46597       -2.37968       -0.69736
C         -4.00240        1.26750       -0.05010
C         -5.26374        1.38478       -0.67509
C         -5.95926        2.59680       -0.66944
C         -5.41306        3.72411       -0.04222
C         -6.14796        5.03186       -0.03142
C         -4.16436        3.62428        0.58180
C         -3.46862        2.41311        0.58087
C         -1.10873       -1.04215        0.57519
C          0.28842       -1.04295        0.59402
H          2.93295        0.88254       -0.46772
H          2.88066       -0.91865       -0.47918
H          2.85753       -0.01945        1.09041
H          0.84594        1.87843       -1.05874
H         -1.58466        1.90021       -1.08790
H         -5.75548       -0.49416        0.99043
H         -6.96641       -2.60779        0.95055
H         -7.15587       -4.91122        0.34829
H         -5.57111       -5.76891        0.35548
H         -6.33937       -5.29560       -1.21224
H         -3.72176       -4.45139       -1.19716
H         -2.48567       -2.35081       -1.15423
H         -5.72532        0.53355       -1.15727
H         -6.92619        2.65234       -1.15402
H         -7.12100        4.95745       -0.56191
H         -5.53309        5.80897       -0.53251
H         -6.34179        5.34217        1.01693
H         -3.72732        4.48754        1.06831
H         -2.50027        2.38053        1.06250
H         -1.62165       -1.87991        1.02742
H          0.81273       -1.86518        1.06591
43

C          2.50589       -0.01006        0.03719
C          1.00597        0.00485        0.00710
C          0.30941        1.05626       -0.60146
C         -1.08782        1.06017       -0.62206
C         -1.82890        0.01070       -0.03340
N         -3.27800        0.01480       -0.05120
C         -4.00980       -1.23350       -0.07630
C         -3.33849       -2.47604       -0.08404
C         -4.05138       -3.67819       -0.10953
C         -5.45228       -3.67080       -0.13101
C         -6.22976       -4.95338       -0.16289
C         -6.13161       -2.44782       -0.12310
C         -5.42217       -1.24503       -0.09369
C         -4.00240        1.26750       -0.05010
C         -5.26374        1.38478       -0.67509
C         -5.95926        2.59680       -0.66944
C         -5.41306        3.72411       -0.04222
C         -6.14796        5.03186       -0.03142
C         -4.16436        3.62428        0.58180
C         -3.46862        2.41311        0.58087
C         -1.10873       -1.04215        0.57519
C          0.28842       -1.04295        0.59402
H          2.93295        0.88254       -0.46772
H          2.88066       -0.91865       -0.47918
H          2.85753       -0.01945        1.09041
H          0.84594        1.87843       -1.05874
H         -1.58466        1.90021       -1.08790
H         -2.25829       -2.52333       -0.05432
H         -3.50708       -4.61444       -0.11089
H         -5.55763       -5.83785       -0.16481
H         -6.85641       -4.98658       -1.07894
H         -6.88792       -5.01307        0.72946
H         -7.21448       -2.42503       -0.14248
H         -5.98453       -0.32079       -0.10279
H         -5.72532        0.53355       -1.15727
H         -6.92619        2.65234       -1.15402
H         -7.12100        4.95745       -0.56191
H         -5.53309        5.80897       -0.53251
H         -6.34179        5.34217        1.01693
H         -3.72732        4.48754        1.06831
H         -2.50027        2.38053        1.06250
H         -1.62165       -1.87991        1.02742
H          0.81273       -1.86518        1.06591
43

C          2.50620        0.01770        0.01854
C          1.00610        0.00651       -0.00329
C          0.30373       -1.03577       -0.62081
C         -1.09357       -1.03478       -0.63622
C         -1.82890        0.01070       -0.03340
N         -3.27800        0.01480       -0.05120
C         -4.00980       -1.23350       -0.07630
C         -3.48222       -2.40378        0.51253
C         -4.19375       -3.60666        0.48373
C         -5.44852       -3.67290       -0.13610
C         -6.22092       -4.95825       -0.17813
C         -5.98471       -2.52187       -0.72336
C         -5.27790       -1.31755       -0.69279
C         -4.00240        1.26750       -0.05010
C         -3.32359        2.50614       -0.03184
C         -4.02860        3.71269       -0.03240
C         -5.42943        3.71465       -0.04855
C         -6.19834        5.00275       -0.04641
C         -6.11688        2.49577       -0.06705
C         -5.41472        1.28831       -0.07026
C         -1.10293        1.05338        0.58572
C          0.29427        1.04929        0.59932
H          2.92832       -0.87214       -0.49530
H          2.86429        0.01928        1.06944
H          2.87968        0.92915       -0.49409
H          0.83585       -1.85079       -1.09571
H         -1.59465       -1.85077       -1.13882
H         -2.52302       -2.38958        1.01223
H         -3.76340       -4.48546        0.94775
H         -5.67155       -5.78096        0.32725
H         -6.39890       -5.25167       -1.23415
H         -7.19859       -4.82293        0.33068
H         -6.95232       -2.55727       -1.20913
H         -5.72090       -0.45387       -1.17065
H         -2.24262        2.54651       -0.03372
H         -3.47811        4.64527       -0.02242
H         -5.52045        5.88254       -0.03251
H         -6.84939        5.04658        0.85207
H         -6.83131        5.06083       -0.95684
H         -7.19974        2.48055       -0.07657
H         -5.98300        0.36756       -0.07123
H         -1.61165        1.87147        1.07702
H          0.82305        1.86121        1.08392
43

C          2.50620        0.01770        0.01854
C          1.00610        0.00651       -0.00329
C          0.30373       -1.03577       -0.62081
C         -1.09357       -1.03478       -0.63622
C         -1.82890        0.01070       -0.03340
N         -3.27800        0.01480       -0.05120
C         -4.00980       -1.23350       -0.07630
C         -3.33849       -2.47604       -0.08404
C         -4.05138       -3.67819       -0.10953
C         -5.45228       -3.67080       -0.13101
C         -6.22976       -4.95338       -0.16289
C         -6.13161       -2.44782       -0.12310
C         -5.42217       -1.24503       -0.09369
C         -4.00240        1.26750       -0.05010
C         -3.45311        2.43178       -0.63155
C         -4.15809        3.63833       -0.62877
C         -5.42851        3.71518       -0.04337
C         -6.19463        5.00488       -0.03106
C         -5.98684        2.57044        0.53668
C         -5.28598        1.36223        0.53207
C         -1.10293        1.05338        0.58572
C          0.29427        1.04929        0.59932
H          2.92832       -0.87214       -0.49530
H          2.86429        0.01928        1.06944
H          2.87968        0.92915       -0.49409
H          0.83585       -1.85079       -1.09571
H         -1.59465       -1.85077       -1.13882
H         -2.25829       -2.52333       -0.05432
H         -3.50708       -4.61444       -0.11089
H         -5.55763       -5.83785       -0.16481
H         -6.85641       -4.98658       -1.07894
H         -6.88792       -5.01307        0.72946
H         -7.21448       -2.42503       -0.14248
H         -5.98453       -0.32079       -0.10279
H         -2.48129        2.40943       -1.10612
H         -3.71059        4.51177       -1.08670
H         -5.62755        5.82104       -0.52708
H         -6.39962        5.30652        1.01777
H         -7.15864        4.87120       -0.56561
H         -6.96667        2.61438        0.99593
H         -5.74635        0.50346        1.00252
H         -1.61165        1.87147        1.07702
H          0.82305        1.86121        1.08392
43

C          2.50620        0.01770        0.01854
C          1.00610        0.00651       -0.00329
C          0.30373       -1.03577       -0.62081
C         -1.09357       -1.03478       -0.63622
C         -1.82890        0.01070       -0.03340
N         -3.27800        0.01480       -0.05120
C         -4.00980       -1.23350       -0.07630
C         -3.48222       -2.40378        0.51253
C         -4.19375       -3.60666        0.48373
C         -5.44852       -3.67290       -0.13610
C         -6.22092       -4.95825       -0.17813
C         -5.98471       -2.52187       -0.72336
C         -5.27790       -1.31755       -0.69279
C         -4.00240        1.26750       -0.05010
C         -3.45311        2.43178       -0.63155
C         -4.15809        3.63833       -0.62877
C         -5.42851        3.71518       -0.04337
C         -6.19463        5.00488       -0.03106
C         -5.98684        2.57044        0.53668
C         -5.28598        1.36223        0.53207
C         -1.10293        1.05338        0.58572
C          0.29427        1.04929        0.59932
H          2.92832       -0.87214       -0.49530
H          2.86429        0.01928        1.06944
H          2.87968        0.92915       -0.49409
H          0.83585       -1.85079       -1.09571
H         -1.59465       -1.85077       -1.13882
H         -2.52302       -2.38958        1.01223
H         -3.76340       -4.48546        0.94775
H         -5.67155       -5.78096        0.32725
H         -6.39890       -5.25167       -1.23415
H         -7.19859       -4.82293        0.33068
H         -6.95232       -2.55727       -1.20913
H         -5.72090       -0.45387       -1.17065
H         -2.48129        2.40943       -1.10612
H         -3.71059        4.51177       -1.08670
H         -5.62755        5.82104       -0.52708
H         -6.39962        5.30652        1.01777
H         -7.15864        4.87120       -0.56561
H         -6.96667        2.61438        0.99593
H         -5.74635        0.50346        1.00252
H         -1.61165        1.87147        1.07702
H          0.82305        1.86121        1.08392
43

C          2.50631        0.01453        0.00918
C          1.00611        0.00367       -0.00457
C          0.29595       -1.20307       -0.02587
C         -1.10137       -1.20082       -0.04005
C         -1.82890        0.01070       -0.03340
N         -3.27800        0.01480       -0.05120
C         -4.00980       -1.23350       -0.07630
C         -3.48222       -2.40378        0.51253
C         -4.19375       -3.60666        0.48373
C         -5.44852       -3.67290       -0.13610
C         -6.22092       -4.95825       -0.17813
C         -5.98471       -2.52187       -0.72336
C         -5.27790       -1.31755       -0.69279
C         -4.00240        1.26750       -0.05010
C         -3.45311        2.43178       -0.63155
C         -4.15809        3.63833       -0.62877
C         -5.42851        3.71518       -0.04337
C         -6.19463        5.00488       -0.03106
C         -5.98684        2.57044        0.53668
C         -5.28598        1.36223        0.53207
C         -1.09513        1.21843       -0.01090
C          0.30206        1.21259        0.00324
H          2.92180       -1.01570        0.00282
H          2.86756        0.53338        0.92182
H          2.88344        0.55071       -0.88709
H          0.82198       -2.14971       -0.03538
H         -1.60860       -2.15535       -0.07336
H         -2.52302       -2.38958        1.01223
H         -3.76340       -4.48546        0.94775
H         -5.67155       -5.78096        0.32725
H         -6.39890       -5.25167       -1.23415
H         -7.19859       -4.82293        0.33068
H         -6.95232       -2.55727       -1.20913
H         -5.72090       -0.45387       -1.17065
H         -2.48129        2.40943       -1.10612
H         -3.71059        4.51177       -1.08670
H         -5.62755        5.82104       -0.52708
H         -6.39962        5.30652        1.01777
H         -7.15864        4.87120       -0.56561
H         -6.96667        2.61438        0.99593
H         -5.74635        0.50346        1.00252
H         -1.59770        2.17570        0.01135
H          0.83691        2.15450        0.02292
