
 OpenBabel02012213403D

 43 45  0  0  0  0  0  0  0  0999 V2000
    2.5338    0.0280    0.0057 C   0  0  0  0  0  0  0  0  0  0  0  0
    1.0343    0.0065    0.0065 C   0  0  0  0  0  0  0  0  0  0  0  0
    0.3276   -1.0344   -0.5971 C   0  0  0  0  0  0  0  0  0  0  0  0
   -1.0734   -1.0203   -0.6252 C   0  0  0  0  0  0  0  0  0  0  0  0
   -1.8159    0.0099   -0.0184 C   0  0  0  0  0  0  0  0  0  0  0  0
   -3.2702    0.0130   -0.0419 N   0  0  0  0  0  0  0  0  0  0  0  0
   -4.0107   -1.2371   -0.0655 C   0  0  0  0  0  0  0  0  0  0  0  0
   -3.5613   -2.3773    0.6267 C   0  0  0  0  0  0  0  0  0  0  0  0
   -4.2693   -3.5902    0.5721 C   0  0  0  0  0  0  0  0  0  0  0  0
   -5.4635   -3.6805   -0.1406 C   0  0  0  0  0  0  0  0  0  0  0  0
   -6.2301   -4.9665   -0.2131 C   0  0  0  0  0  0  0  0  0  0  0  0
   -5.9467   -2.5460   -0.7992 C   0  0  0  0  0  0  0  0  0  0  0  0
   -5.2186   -1.3533   -0.7794 C   0  0  0  0  0  0  0  0  0  0  0  0
   -4.0031    1.2698   -0.0464 C   0  0  0  0  0  0  0  0  0  0  0  0
   -3.5230    2.4004   -0.7313 C   0  0  0  0  0  0  0  0  0  0  0  0
   -4.2261    3.6121   -0.7161 C   0  0  0  0  0  0  0  0  0  0  0  0
   -5.4445    3.7171   -0.0457 C   0  0  0  0  0  0  0  0  0  0  0  0
   -6.2021    5.0096   -0.0043 C   0  0  0  0  0  0  0  0  0  0  0  0
   -5.9564    2.5921    0.6047 C   0  0  0  0  0  0  0  0  0  0  0  0
   -5.2350    1.3955    0.6236 C   0  0  0  0  0  0  0  0  0  0  0  0
   -1.0833    1.0371    0.6076 C   0  0  0  0  0  0  0  0  0  0  0  0
    0.3181    1.0495    0.5981 C   0  0  0  0  0  0  0  0  0  0  0  0
    2.9484   -0.9028   -0.3953 H   0  0  0  0  0  0  0  0  0  0  0  0
    2.9127    0.1471    1.0260 H   0  0  0  0  0  0  0  0  0  0  0  0
    2.8980    0.8552   -0.6123 H   0  0  0  0  0  0  0  0  0  0  0  0
    0.8559   -1.8650   -1.0598 H   0  0  0  0  0  0  0  0  0  0  0  0
   -1.5778   -1.8338   -1.1420 H   0  0  0  0  0  0  0  0  0  0  0  0
   -2.6539   -2.3375    1.2227 H   0  0  0  0  0  0  0  0  0  0  0  0
   -3.8689   -4.4532    1.0975 H   0  0  0  0  0  0  0  0  0  0  0  0
   -5.7142   -5.7723    0.3203 H   0  0  0  0  0  0  0  0  0  0  0  0
   -6.3415   -5.2733   -1.2569 H   0  0  0  0  0  0  0  0  0  0  0  0
   -7.2218   -4.8437    0.2341 H   0  0  0  0  0  0  0  0  0  0  0  0
   -6.8915   -2.5826   -1.3384 H   0  0  0  0  0  0  0  0  0  0  0  0
   -5.6119   -0.5048   -1.3352 H   0  0  0  0  0  0  0  0  0  0  0  0
   -2.5949    2.3476   -1.2941 H   0  0  0  0  0  0  0  0  0  0  0  0
   -3.8006    4.4713   -1.2314 H   0  0  0  0  0  0  0  0  0  0  0  0
   -5.6671    5.8068   -0.5312 H   0  0  0  0  0  0  0  0  0  0  0  0
   -6.3387    5.3277    1.0344 H   0  0  0  0  0  0  0  0  0  0  0  0
   -7.1824    4.8905   -0.4759 H   0  0  0  0  0  0  0  0  0  0  0  0
   -6.9174    2.6400    1.1119 H   0  0  0  0  0  0  0  0  0  0  0  0
   -5.6517    0.5546    1.1721 H   0  0  0  0  0  0  0  0  0  0  0  0
   -1.5961    1.8508    1.1130 H   0  0  0  0  0  0  0  0  0  0  0  0
    0.8430    1.8816    1.0620 H   0  0  0  0  0  0  0  0  0  0  0  0
  1  2  1  0  0  0  0
  1 23  1  0  0  0  0
  1 24  1  0  0  0  0
  1 25  1  0  0  0  0
  2  3  1  0  0  0  0
  2 22  2  0  0  0  0
  3  4  2  0  0  0  0
  3 26  1  0  0  0  0
  4  5  1  0  0  0  0
  4 27  1  0  0  0  0
  5  6  1  0  0  0  0
  5 21  2  0  0  0  0
  6  7  1  0  0  0  0
  6 14  1  0  0  0  0
  7  8  1  0  0  0  0
  7 13  2  0  0  0  0
  8  9  2  0  0  0  0
  8 28  1  0  0  0  0
  9 10  1  0  0  0  0
  9 29  1  0  0  0  0
 10 11  1  0  0  0  0
 10 12  2  0  0  0  0
 11 30  1  0  0  0  0
 11 31  1  0  0  0  0
 11 32  1  0  0  0  0
 12 13  1  0  0  0  0
 12 33  1  0  0  0  0
 13 34  1  0  0  0  0
 14 15  1  0  0  0  0
 14 20  2  0  0  0  0
 15 16  2  0  0  0  0
 15 35  1  0  0  0  0
 16 17  1  0  0  0  0
 16 36  1  0  0  0  0
 17 18  1  0  0  0  0
 17 19  2  0  0  0  0
 18 37  1  0  0  0  0
 18 38  1  0  0  0  0
 18 39  1  0  0  0  0
 19 20  1  0  0  0  0
 19 40  1  0  0  0  0
 20 41  1  0  0  0  0
 21 22  1  0  0  0  0
 21 42  1  0  0  0  0
 22 43  1  0  0  0  0
M  END
