
  xtb     02012213403D
 xtb: 6.4.1 (23d549d)
 43 45  0     0  0            999 V2000
    2.4232    0.0094    0.0148 c   0  0  0  0  0  0  0  0  0  0  0  0
    0.9247    0.0018   -0.0154 c   0  0  0  0  0  0  0  0  0  0  0  0
    0.2008   -0.9879    0.6381 c   0  0  0  0  0  0  0  0  0  0  0  0
   -1.1797   -0.9852    0.6342 c   0  0  0  0  0  0  0  0  0  0  0  0
   -1.8816    0.0131   -0.0403 c   0  0  0  0  0  0  0  0  0  0  0  0
   -3.2804    0.0164   -0.0554 n   0  0  0  0  0  0  0  0  0  0  0  0
   -3.9821   -1.1926   -0.1176 c   0  0  0  0  0  0  0  0  0  0  0  0
   -5.1751   -1.3596    0.5831 c   0  0  0  0  0  0  0  0  0  0  0  0
   -5.8651   -2.5541    0.5142 c   0  0  0  0  0  0  0  0  0  0  0  0
   -5.3886   -3.6174   -0.2410 c   0  0  0  0  0  0  0  0  0  0  0  0
   -6.1234   -4.9224   -0.3026 c   0  0  0  0  0  0  0  0  0  0  0  0
   -4.1957   -3.4466   -0.9353 c   0  0  0  0  0  0  0  0  0  0  0  0
   -3.5021   -2.2553   -0.8831 c   0  0  0  0  0  0  0  0  0  0  0  0
   -3.9784    1.2283   -0.0112 c   0  0  0  0  0  0  0  0  0  0  0  0
   -5.1555    1.3983   -0.7377 c   0  0  0  0  0  0  0  0  0  0  0  0
   -5.8422    2.5955   -0.6863 c   0  0  0  0  0  0  0  0  0  0  0  0
   -5.3780    3.6588    0.0767 c   0  0  0  0  0  0  0  0  0  0  0  0
   -6.1090    4.9666    0.1196 c   0  0  0  0  0  0  0  0  0  0  0  0
   -4.2008    3.4850    0.7967 c   0  0  0  0  0  0  0  0  0  0  0  0
   -3.5107    2.2910    0.7620 c   0  0  0  0  0  0  0  0  0  0  0  0
   -1.1600    1.0065   -0.7014 c   0  0  0  0  0  0  0  0  0  0  0  0
    0.2201    0.9983   -0.6805 c   0  0  0  0  0  0  0  0  0  0  0  0
    2.8141   -0.9988    0.1316 h   0  0  0  0  0  0  0  0  0  0  0  0
    2.7783    0.6081    0.8547 h   0  0  0  0  0  0  0  0  0  0  0  0
    2.8269    0.4411   -0.8985 h   0  0  0  0  0  0  0  0  0  0  0  0
    0.7261   -1.7711    1.1663 h   0  0  0  0  0  0  0  0  0  0  0  0
   -1.7249   -1.7585    1.1555 h   0  0  0  0  0  0  0  0  0  0  0  0
   -5.5571   -0.5467    1.1834 h   0  0  0  0  0  0  0  0  0  0  0  0
   -6.7881   -2.6626    1.0662 h   0  0  0  0  0  0  0  0  0  0  0  0
   -7.1173   -4.8300    0.1281 h   0  0  0  0  0  0  0  0  0  0  0  0
   -5.5794   -5.6880    0.2513 h   0  0  0  0  0  0  0  0  0  0  0  0
   -6.2174   -5.2620   -1.3328 h   0  0  0  0  0  0  0  0  0  0  0  0
   -3.8096   -4.2590   -1.5346 h   0  0  0  0  0  0  0  0  0  0  0  0
   -2.5828   -2.1374   -1.4381 h   0  0  0  0  0  0  0  0  0  0  0  0
   -5.5276    0.5856   -1.3444 h   0  0  0  0  0  0  0  0  0  0  0  0
   -6.7527    2.7062   -1.2582 h   0  0  0  0  0  0  0  0  0  0  0  0
   -7.0938    4.8767   -0.3322 h   0  0  0  0  0  0  0  0  0  0  0  0
   -5.5505    5.7290   -0.4242 h   0  0  0  0  0  0  0  0  0  0  0  0
   -6.2240    5.3089    1.1468 h   0  0  0  0  0  0  0  0  0  0  0  0
   -3.8245    4.2974    1.4022 h   0  0  0  0  0  0  0  0  0  0  0  0
   -2.6040    2.1709    1.3368 h   0  0  0  0  0  0  0  0  0  0  0  0
   -1.6897    1.7823   -1.2347 h   0  0  0  0  0  0  0  0  0  0  0  0
    0.7614    1.7759   -1.2007 h   0  0  0  0  0  0  0  0  0  0  0  0
  1  2  1  0  0  0  0
  2  3  4  0  0  0  0
  3  4  4  0  0  0  0
  4  5  4  0  0  0  0
  5  6  1  0  0  0  0
  6  7  1  0  0  0  0
  7  8  4  0  0  0  0
  8  9  4  0  0  0  0
  9 10  4  0  0  0  0
 10 11  1  0  0  0  0
 10 12  4  0  0  0  0
  7 13  4  0  0  0  0
 12 13  4  0  0  0  0
  6 14  1  0  0  0  0
 14 15  4  0  0  0  0
 15 16  4  0  0  0  0
 16 17  4  0  0  0  0
 17 18  1  0  0  0  0
 17 19  4  0  0  0  0
 14 20  4  0  0  0  0
 19 20  4  0  0  0  0
  5 21  4  0  0  0  0
  2 22  4  0  0  0  0
 21 22  4  0  0  0  0
  1 23  1  0  0  0  0
  1 24  1  0  0  0  0
  1 25  1  0  0  0  0
  3 26  1  0  0  0  0
  4 27  1  0  0  0  0
  8 28  1  0  0  0  0
  9 29  1  0  0  0  0
 11 30  1  0  0  0  0
 11 31  1  0  0  0  0
 11 32  1  0  0  0  0
 12 33  1  0  0  0  0
 13 34  1  0  0  0  0
 15 35  1  0  0  0  0
 16 36  1  0  0  0  0
 18 37  1  0  0  0  0
 18 38  1  0  0  0  0
 18 39  1  0  0  0  0
 19 40  1  0  0  0  0
 20 41  1  0  0  0  0
 21 42  1  0  0  0  0
 22 43  1  0  0  0  0
M  END
