
 OpenBabel02032211083D

 26 27  0  0  0  0  0  0  0  0999 V2000
    2.5823   -0.4884    1.0464 C   0  0  0  0  0  0  0  0  0  0  0  0
    2.2372    0.3898    0.0955 C   0  0  0  0  0  0  0  0  0  0  0  0
    3.1516    1.0205   -0.9116 C   0  0  0  0  0  0  0  0  0  0  0  0
    2.7828    2.3143   -1.2878 C   0  0  0  0  0  0  0  0  0  0  0  0
    3.5540    3.0727   -2.1525 C   0  0  0  0  0  0  0  0  0  0  0  0
    4.7463    2.5772   -2.7081 C   0  0  0  0  0  0  0  0  0  0  0  0
    5.5563    3.4536   -3.6320 C   0  0  0  0  0  0  0  0  0  0  0  0
    5.2740    4.7286   -3.9447 C   0  0  0  0  0  0  0  0  0  0  0  0
    5.1367    1.2381   -2.3813 C   0  0  0  0  0  0  0  0  0  0  0  0
    6.3079    0.6501   -2.9255 C   0  0  0  0  0  0  0  0  0  0  0  0
    6.6630   -0.6619   -2.6319 C   0  0  0  0  0  0  0  0  0  0  0  0
    5.8646   -1.4311   -1.8039 C   0  0  0  0  0  0  0  0  0  0  0  0
    4.7133   -0.8906   -1.2421 C   0  0  0  0  0  0  0  0  0  0  0  0
    4.3293    0.4497   -1.4870 C   0  0  0  0  0  0  0  0  0  0  0  0
    1.8295   -0.8391    1.7451 H   0  0  0  0  0  0  0  0  0  0  0  0
    3.5937   -0.8340    1.2024 H   0  0  0  0  0  0  0  0  0  0  0  0
    1.2062    0.7349    0.1243 H   0  0  0  0  0  0  0  0  0  0  0  0
    1.8868    2.7691   -0.8791 H   0  0  0  0  0  0  0  0  0  0  0  0
    3.1897    4.0639   -2.3649 H   0  0  0  0  0  0  0  0  0  0  0  0
    6.4502    3.0794   -4.1039 H   0  0  0  0  0  0  0  0  0  0  0  0
    4.4241    5.2734   -3.5611 H   0  0  0  0  0  0  0  0  0  0  0  0
    5.9315    5.2679   -4.6200 H   0  0  0  0  0  0  0  0  0  0  0  0
    6.9740    1.1663   -3.5917 H   0  0  0  0  0  0  0  0  0  0  0  0
    7.5577   -1.0907   -3.0655 H   0  0  0  0  0  0  0  0  0  0  0  0
    6.1349   -2.4593   -1.5994 H   0  0  0  0  0  0  0  0  0  0  0  0
    4.1333   -1.5658   -0.6459 H   0  0  0  0  0  0  0  0  0  0  0  0
  1  2  2  0  0  0  0
  1 15  1  0  0  0  0
  1 16  1  0  0  0  0
  2  3  1  0  0  0  0
  2 17  1  0  0  0  0
  3  4  1  0  0  0  0
  3 14  2  0  0  0  0
  4  5  2  0  0  0  0
  4 18  1  0  0  0  0
  5  6  1  0  0  0  0
  5 19  1  0  0  0  0
  6  7  1  0  0  0  0
  6  9  2  0  0  0  0
  7  8  2  0  0  0  0
  7 20  1  0  0  0  0
  8 21  1  0  0  0  0
  8 22  1  0  0  0  0
  9 10  1  0  0  0  0
  9 14  1  0  0  0  0
 10 11  2  0  0  0  0
 10 23  1  0  0  0  0
 11 12  1  0  0  0  0
 11 24  1  0  0  0  0
 12 13  2  0  0  0  0
 12 25  1  0  0  0  0
 13 14  1  0  0  0  0
 13 26  1  0  0  0  0
M  END
