
  xtb     02032211353D
 xtb: 6.4.1 (23d549d)
 26 27  0     0  0            999 V2000
    3.9479   -2.0725    0.1295 C   0  0  0  0  0  0  0  0  0  0  0  0
    3.7248   -0.7778   -0.0615 C   0  0  0  0  0  0  0  0  0  0  0  0
    2.4310   -0.1055   -0.0425 C   0  0  0  0  0  0  0  0  0  0  0  0
    2.4109    1.3097   -0.0534 C   0  0  0  0  0  0  0  0  0  0  0  0
    1.2364    2.0027   -0.0290 C   0  0  0  0  0  0  0  0  0  0  0  0
   -0.0000    1.3265   -0.0001 C   0  0  0  0  0  0  0  0  0  0  0  0
   -1.2365    2.0027    0.0284 C   0  0  0  0  0  0  0  0  0  0  0  0
   -2.4110    1.3096    0.0532 C   0  0  0  0  0  0  0  0  0  0  0  0
   -2.4310   -0.1055    0.0429 C   0  0  0  0  0  0  0  0  0  0  0  0
   -3.7247   -0.7780    0.0624 C   0  0  0  0  0  0  0  0  0  0  0  0
   -3.9478   -2.0724   -0.1308 C   0  0  0  0  0  0  0  0  0  0  0  0
   -1.2297   -0.7790    0.0208 C   0  0  0  0  0  0  0  0  0  0  0  0
    0.0000   -0.0936    0.0003 C   0  0  0  0  0  0  0  0  0  0  0  0
    1.2297   -0.7789   -0.0200 C   0  0  0  0  0  0  0  0  0  0  0  0
    4.9442   -2.4794    0.1006 H   0  0  0  0  0  0  0  0  0  0  0  0
    3.1578   -2.7765    0.3276 H   0  0  0  0  0  0  0  0  0  0  0  0
    4.5696   -0.1224   -0.2378 H   0  0  0  0  0  0  0  0  0  0  0  0
    3.3521    1.8413   -0.0764 H   0  0  0  0  0  0  0  0  0  0  0  0
    1.2371    3.0838   -0.0339 H   0  0  0  0  0  0  0  0  0  0  0  0
   -1.2373    3.0838    0.0328 H   0  0  0  0  0  0  0  0  0  0  0  0
   -3.3522    1.8412    0.0760 H   0  0  0  0  0  0  0  0  0  0  0  0
   -4.5694   -0.1229    0.2406 H   0  0  0  0  0  0  0  0  0  0  0  0
   -3.1578   -2.7758   -0.3312 H   0  0  0  0  0  0  0  0  0  0  0  0
   -4.9440   -2.4795   -0.1019 H   0  0  0  0  0  0  0  0  0  0  0  0
   -1.2093   -1.8586    0.0290 H   0  0  0  0  0  0  0  0  0  0  0  0
    1.2093   -1.8586   -0.0274 H   0  0  0  0  0  0  0  0  0  0  0  0
  1  2  2  0  0  0  0
  2  3  1  0  0  0  0
  3  4  4  0  0  0  0
  4  5  2  0  0  0  0
  5  6  4  0  0  0  0
  6  7  4  0  0  0  0
  7  8  2  0  0  0  0
  8  9  4  0  0  0  0
  9 10  1  0  0  0  0
 10 11  2  0  0  0  0
  9 12  4  0  0  0  0
  6 13  4  0  0  0  0
 12 13  4  0  0  0  0
  3 14  4  0  0  0  0
 13 14  4  0  0  0  0
  1 15  1  0  0  0  0
  1 16  1  0  0  0  0
  2 17  1  0  0  0  0
  4 18  1  0  0  0  0
  5 19  1  0  0  0  0
  7 20  1  0  0  0  0
  8 21  1  0  0  0  0
 10 22  1  0  0  0  0
 11 23  1  0  0  0  0
 11 24  1  0  0  0  0
 12 25  1  0  0  0  0
 14 26  1  0  0  0  0
M  END
