
  xtb     02032211353D
 xtb: 6.4.1 (23d549d)
 82 82  0     0  0            999 V2000
   -2.8860    3.0063    2.8379 C   0  0  0  0  0  0  0  0  0  0  0  0
   -1.9176    2.9956    1.9284 C   0  0  0  0  0  0  0  0  0  0  0  0
   -1.9362    2.3093    0.6455 C   0  0  0  0  0  0  0  0  0  0  0  0
   -3.0972    1.7635    0.1055 C   0  0  0  0  0  0  0  0  0  0  0  0
   -3.1157    1.0862   -1.1047 C   0  0  0  0  0  0  0  0  0  0  0  0
   -4.2304    0.4913   -1.6197 O   0  0  0  0  0  0  0  0  0  0  0  0
   -5.3463    0.2267   -0.7975 C   0  0  0  0  0  0  0  0  0  0  0  0
   -5.1061   -0.7650    0.3458 C   0  0  0  0  0  0  0  0  0  0  0  0
   -4.7073   -2.1723   -0.1062 C   0  0  0  0  0  0  0  0  0  0  0  0
   -3.2875   -2.2970   -0.6656 C   0  0  0  0  0  0  0  0  0  0  0  0
   -2.2053   -1.9341    0.3495 C   0  0  0  0  0  0  0  0  0  0  0  0
   -0.7988   -2.1270   -0.2166 C   0  0  0  0  0  0  0  0  0  0  0  0
    0.2657   -1.3979    0.6039 C   0  0  0  0  0  0  0  0  0  0  0  0
    0.4455   -1.9665    2.0096 C   0  0  0  0  0  0  0  0  0  0  0  0
    1.4409   -1.1673    2.8524 C   0  0  0  0  0  0  0  0  0  0  0  0
    0.8944    0.1860    3.2937 C   0  0  0  0  0  0  0  0  0  0  0  0
   -1.9257    0.9930   -1.8536 C   0  0  0  0  0  0  0  0  0  0  0  0
   -1.8103    0.3447   -3.1518 C   0  0  0  0  0  0  0  0  0  0  0  0
   -2.7864   -0.0079   -3.9815 C   0  0  0  0  0  0  0  0  0  0  0  0
   -0.7623    1.5416   -1.3113 C   0  0  0  0  0  0  0  0  0  0  0  0
   -0.7370    2.1769   -0.0823 C   0  0  0  0  0  0  0  0  0  0  0  0
    0.3949    2.6786    0.4950 O   0  0  0  0  0  0  0  0  0  0  0  0
    1.6415    2.3959   -0.1051 C   0  0  0  0  0  0  0  0  0  0  0  0
    2.7417    2.8661    0.8428 C   0  0  0  0  0  0  0  0  0  0  0  0
    4.1201    2.3628    0.4127 C   0  0  0  0  0  0  0  0  0  0  0  0
    4.3367    0.8885    0.7525 C   0  0  0  0  0  0  0  0  0  0  0  0
    5.6474    0.3564    0.1789 C   0  0  0  0  0  0  0  0  0  0  0  0
    5.9690   -1.0722    0.6239 C   0  0  0  0  0  0  0  0  0  0  0  0
    4.9067   -2.1203    0.2837 C   0  0  0  0  0  0  0  0  0  0  0  0
    4.6212   -2.2397   -1.2116 C   0  0  0  0  0  0  0  0  0  0  0  0
    3.5992   -3.3304   -1.5393 C   0  0  0  0  0  0  0  0  0  0  0  0
    4.1328   -4.7420   -1.3262 C   0  0  0  0  0  0  0  0  0  0  0  0
   -2.7747    3.5455    3.7628 H   0  0  0  0  0  0  0  0  0  0  0  0
   -3.8186    2.4826    2.7116 H   0  0  0  0  0  0  0  0  0  0  0  0
   -0.9955    3.5222    2.1321 H   0  0  0  0  0  0  0  0  0  0  0  0
   -4.0130    1.8867    0.6593 H   0  0  0  0  0  0  0  0  0  0  0  0
   -6.0831   -0.1912   -1.4908 H   0  0  0  0  0  0  0  0  0  0  0  0
   -5.7567    1.1626   -0.3924 H   0  0  0  0  0  0  0  0  0  0  0  0
   -6.0452   -0.8312    0.9011 H   0  0  0  0  0  0  0  0  0  0  0  0
   -4.3488   -0.3738    1.0243 H   0  0  0  0  0  0  0  0  0  0  0  0
   -5.4151   -2.5116   -0.8666 H   0  0  0  0  0  0  0  0  0  0  0  0
   -4.8023   -2.8405    0.7542 H   0  0  0  0  0  0  0  0  0  0  0  0
   -3.1842   -1.6665   -1.5484 H   0  0  0  0  0  0  0  0  0  0  0  0
   -3.1387   -3.3325   -0.9837 H   0  0  0  0  0  0  0  0  0  0  0  0
   -2.3363   -2.5465    1.2443 H   0  0  0  0  0  0  0  0  0  0  0  0
   -2.3087   -0.8871    0.6386 H   0  0  0  0  0  0  0  0  0  0  0  0
   -0.7797   -1.7303   -1.2346 H   0  0  0  0  0  0  0  0  0  0  0  0
   -0.5613   -3.1922   -0.2712 H   0  0  0  0  0  0  0  0  0  0  0  0
   -0.0179   -0.3464    0.6695 H   0  0  0  0  0  0  0  0  0  0  0  0
    1.2223   -1.4553    0.0756 H   0  0  0  0  0  0  0  0  0  0  0  0
    0.7924   -3.0003    1.9291 H   0  0  0  0  0  0  0  0  0  0  0  0
   -0.5156   -1.9777    2.5254 H   0  0  0  0  0  0  0  0  0  0  0  0
    2.3626   -1.0200    2.2849 H   0  0  0  0  0  0  0  0  0  0  0  0
    1.6941   -1.7497    3.7421 H   0  0  0  0  0  0  0  0  0  0  0  0
    0.6730    0.8233    2.4425 H   0  0  0  0  0  0  0  0  0  0  0  0
    1.6194    0.6985    3.9230 H   0  0  0  0  0  0  0  0  0  0  0  0
   -0.0221    0.0573    3.8658 H   0  0  0  0  0  0  0  0  0  0  0  0
   -0.7849    0.1636   -3.4568 H   0  0  0  0  0  0  0  0  0  0  0  0
   -3.8228    0.1625   -3.7593 H   0  0  0  0  0  0  0  0  0  0  0  0
   -2.5634   -0.4784   -4.9251 H   0  0  0  0  0  0  0  0  0  0  0  0
    0.1430    1.4554   -1.8922 H   0  0  0  0  0  0  0  0  0  0  0  0
    1.7293    2.9147   -1.0703 H   0  0  0  0  0  0  0  0  0  0  0  0
    1.7292    1.3159   -0.2798 H   0  0  0  0  0  0  0  0  0  0  0  0
    2.5129    2.5032    1.8460 H   0  0  0  0  0  0  0  0  0  0  0  0
    2.7313    3.9567    0.8729 H   0  0  0  0  0  0  0  0  0  0  0  0
    4.8881    2.9568    0.9121 H   0  0  0  0  0  0  0  0  0  0  0  0
    4.2384    2.5115   -0.6636 H   0  0  0  0  0  0  0  0  0  0  0  0
    3.5082    0.3020    0.3558 H   0  0  0  0  0  0  0  0  0  0  0  0
    4.3409    0.7690    1.8384 H   0  0  0  0  0  0  0  0  0  0  0  0
    6.4653    1.0054    0.5027 H   0  0  0  0  0  0  0  0  0  0  0  0
    5.6106    0.4040   -0.9111 H   0  0  0  0  0  0  0  0  0  0  0  0
    6.1161   -1.0753    1.7071 H   0  0  0  0  0  0  0  0  0  0  0  0
    6.9148   -1.3699    0.1639 H   0  0  0  0  0  0  0  0  0  0  0  0
    3.9783   -1.8909    0.8099 H   0  0  0  0  0  0  0  0  0  0  0  0
    5.2607   -3.0821    0.6595 H   0  0  0  0  0  0  0  0  0  0  0  0
    5.5531   -2.4475   -1.7429 H   0  0  0  0  0  0  0  0  0  0  0  0
    4.2349   -1.2874   -1.5804 H   0  0  0  0  0  0  0  0  0  0  0  0
    3.3002   -3.2244   -2.5852 H   0  0  0  0  0  0  0  0  0  0  0  0
    2.7064   -3.1851   -0.9263 H   0  0  0  0  0  0  0  0  0  0  0  0
    5.0395   -4.8977   -1.9071 H   0  0  0  0  0  0  0  0  0  0  0  0
    3.3938   -5.4753   -1.6419 H   0  0  0  0  0  0  0  0  0  0  0  0
    4.3600   -4.9222   -0.2788 H   0  0  0  0  0  0  0  0  0  0  0  0
  1  2  2  0  0  0  0
  2  3  1  0  0  0  0
  3  4  4  0  0  0  0
  4  5  4  0  0  0  0
  5  6  1  0  0  0  0
  6  7  1  0  0  0  0
  7  8  1  0  0  0  0
  8  9  1  0  0  0  0
  9 10  1  0  0  0  0
 10 11  1  0  0  0  0
 11 12  1  0  0  0  0
 12 13  1  0  0  0  0
 13 14  1  0  0  0  0
 14 15  1  0  0  0  0
 15 16  1  0  0  0  0
  5 17  4  0  0  0  0
 17 18  1  0  0  0  0
 18 19  2  0  0  0  0
 17 20  4  0  0  0  0
  3 21  4  0  0  0  0
 20 21  4  0  0  0  0
 21 22  1  0  0  0  0
 22 23  1  0  0  0  0
 23 24  1  0  0  0  0
 24 25  1  0  0  0  0
 25 26  1  0  0  0  0
 26 27  1  0  0  0  0
 27 28  1  0  0  0  0
 28 29  1  0  0  0  0
 29 30  1  0  0  0  0
 30 31  1  0  0  0  0
 31 32  1  0  0  0  0
  1 33  1  0  0  0  0
  1 34  1  0  0  0  0
  2 35  1  0  0  0  0
  4 36  1  0  0  0  0
  7 37  1  0  0  0  0
  7 38  1  0  0  0  0
  8 39  1  0  0  0  0
  8 40  1  0  0  0  0
  9 41  1  0  0  0  0
  9 42  1  0  0  0  0
 10 43  1  0  0  0  0
 10 44  1  0  0  0  0
 11 45  1  0  0  0  0
 11 46  1  0  0  0  0
 12 47  1  0  0  0  0
 12 48  1  0  0  0  0
 13 49  1  0  0  0  0
 13 50  1  0  0  0  0
 14 51  1  0  0  0  0
 14 52  1  0  0  0  0
 15 53  1  0  0  0  0
 15 54  1  0  0  0  0
 16 55  1  0  0  0  0
 16 56  1  0  0  0  0
 16 57  1  0  0  0  0
 18 58  1  0  0  0  0
 19 59  1  0  0  0  0
 19 60  1  0  0  0  0
 20 61  1  0  0  0  0
 23 62  1  0  0  0  0
 23 63  1  0  0  0  0
 24 64  1  0  0  0  0
 24 65  1  0  0  0  0
 25 66  1  0  0  0  0
 25 67  1  0  0  0  0
 26 68  1  0  0  0  0
 26 69  1  0  0  0  0
 27 70  1  0  0  0  0
 27 71  1  0  0  0  0
 28 72  1  0  0  0  0
 28 73  1  0  0  0  0
 29 74  1  0  0  0  0
 29 75  1  0  0  0  0
 30 76  1  0  0  0  0
 30 77  1  0  0  0  0
 31 78  1  0  0  0  0
 31 79  1  0  0  0  0
 32 80  1  0  0  0  0
 32 81  1  0  0  0  0
 32 82  1  0  0  0  0
M  END
