
 OpenBabel02032210583D

 23 23  0  0  0  0  0  0  0  0999 V2000
    1.0846    0.2178   -0.2632 C   0  0  0  0  0  0  0  0  0  0  0  0
    2.3974   -0.0030   -0.1118 C   0  0  0  0  0  0  0  0  0  0  0  0
    3.0346   -1.3468   -0.0128 C   0  0  0  0  0  0  0  0  0  0  0  0
    4.4240   -1.4092    0.1227 C   0  0  0  0  0  0  0  0  0  0  0  0
    5.0779   -2.6358    0.2098 C   0  0  0  0  0  0  0  0  0  0  0  0
    4.3718   -3.8511    0.1607 C   0  0  0  0  0  0  0  0  0  0  0  0
    5.2272   -5.0788    0.1985 C   0  0  0  0  0  0  0  0  0  0  0  0
    4.9321   -6.2734   -0.3298 C   0  0  0  0  0  0  0  0  0  0  0  0
    2.9463   -3.8010    0.0647 C   0  0  0  0  0  0  0  0  0  0  0  0
    2.0248   -4.9951    0.1298 C   0  0  0  0  0  0  0  0  0  0  0  0
    2.3061   -2.5497   -0.0349 C   0  0  0  0  0  0  0  0  0  0  0  0
    0.7199    1.2380   -0.3278 H   0  0  0  0  0  0  0  0  0  0  0  0
    0.3540   -0.5771   -0.3293 H   0  0  0  0  0  0  0  0  0  0  0  0
    3.0414    0.8712   -0.0621 H   0  0  0  0  0  0  0  0  0  0  0  0
    5.0139   -0.5008    0.1513 H   0  0  0  0  0  0  0  0  0  0  0  0
    6.1589   -2.6317    0.2924 H   0  0  0  0  0  0  0  0  0  0  0  0
    6.2221   -4.9837    0.6268 H   0  0  0  0  0  0  0  0  0  0  0  0
    4.0220   -6.4798   -0.8724 H   0  0  0  0  0  0  0  0  0  0  0  0
    5.6598   -7.0763   -0.2671 H   0  0  0  0  0  0  0  0  0  0  0  0
    2.5088   -5.9371    0.4224 H   0  0  0  0  0  0  0  0  0  0  0  0
    1.4824   -5.1148   -0.8315 H   0  0  0  0  0  0  0  0  0  0  0  0
    1.2792   -4.8242    0.9359 H   0  0  0  0  0  0  0  0  0  0  0  0
    1.2288   -2.5337   -0.1083 H   0  0  0  0  0  0  0  0  0  0  0  0
  1  2  2  0  0  0  0
  1 12  1  0  0  0  0
  1 13  1  0  0  0  0
  2  3  1  0  0  0  0
  2 14  1  0  0  0  0
  3  4  1  0  0  0  0
  3 11  2  0  0  0  0
  4  5  2  0  0  0  0
  4 15  1  0  0  0  0
  5  6  1  0  0  0  0
  5 16  1  0  0  0  0
  6  7  1  0  0  0  0
  6  9  2  0  0  0  0
  7  8  2  0  0  0  0
  7 17  1  0  0  0  0
  8 18  1  0  0  0  0
  8 19  1  0  0  0  0
  9 10  1  0  0  0  0
  9 11  1  0  0  0  0
 10 20  1  0  0  0  0
 10 21  1  0  0  0  0
 10 22  1  0  0  0  0
 11 23  1  0  0  0  0
M  END
