
  xtb     02032211343D
 xtb: 6.4.1 (23d549d)
 24 24  0     0  0            999 V2000
    3.5499   -2.7415    0.0283 C   0  0  0  0  0  0  0  0  0  0  0  0
    3.4026   -1.4230   -0.0092 C   0  0  0  0  0  0  0  0  0  0  0  0
    2.1450   -0.6826   -0.0079 C   0  0  0  0  0  0  0  0  0  0  0  0
    0.8982   -1.3065   -0.0107 C   0  0  0  0  0  0  0  0  0  0  0  0
   -0.2764   -0.5621   -0.0082 C   0  0  0  0  0  0  0  0  0  0  0  0
   -1.5385   -1.2873   -0.0115 C   0  0  0  0  0  0  0  0  0  0  0  0
   -2.7728   -0.8076    0.0001 C   0  0  0  0  0  0  0  0  0  0  0  0
   -3.1620    0.4635    0.0178 F   0  0  0  0  0  0  0  0  0  0  0  0
   -3.8557   -1.5847   -0.0043 F   0  0  0  0  0  0  0  0  0  0  0  0
   -0.2118    0.8337   -0.0031 C   0  0  0  0  0  0  0  0  0  0  0  0
    1.0230    1.4677   -0.0019 C   0  0  0  0  0  0  0  0  0  0  0  0
    1.1996    2.8157    0.0016 O   0  0  0  0  0  0  0  0  0  0  0  0
    0.0631    3.6470    0.0042 C   0  0  0  0  0  0  0  0  0  0  0  0
    2.1912    0.7068   -0.0050 C   0  0  0  0  0  0  0  0  0  0  0  0
    4.5266   -3.1940    0.0249 H   0  0  0  0  0  0  0  0  0  0  0  0
    2.7181   -3.4235    0.0654 H   0  0  0  0  0  0  0  0  0  0  0  0
    4.2866   -0.7984   -0.0413 H   0  0  0  0  0  0  0  0  0  0  0  0
    0.8356   -2.3827   -0.0169 H   0  0  0  0  0  0  0  0  0  0  0  0
   -1.4713   -2.3657   -0.0240 H   0  0  0  0  0  0  0  0  0  0  0  0
   -1.1193    1.4107   -0.0013 H   0  0  0  0  0  0  0  0  0  0  0  0
    0.4457    4.6664    0.0058 H   0  0  0  0  0  0  0  0  0  0  0  0
   -0.5489    3.4891    0.8978 H   0  0  0  0  0  0  0  0  0  0  0  0
   -0.5505    3.4926   -0.8888 H   0  0  0  0  0  0  0  0  0  0  0  0
    3.1361    1.2279   -0.0040 H   0  0  0  0  0  0  0  0  0  0  0  0
  1  2  2  0  0  0  0
  2  3  1  0  0  0  0
  3  4  4  0  0  0  0
  4  5  4  0  0  0  0
  5  6  1  0  0  0  0
  6  7  2  0  0  0  0
  7  8  1  0  0  0  0
  7  9  1  0  0  0  0
  5 10  4  0  0  0  0
 10 11  4  0  0  0  0
 11 12  1  0  0  0  0
 12 13  1  0  0  0  0
  3 14  4  0  0  0  0
 11 14  4  0  0  0  0
  1 15  1  0  0  0  0
  1 16  1  0  0  0  0
  2 17  1  0  0  0  0
  4 18  1  0  0  0  0
  6 19  1  0  0  0  0
 10 20  1  0  0  0  0
 13 21  1  0  0  0  0
 13 22  1  0  0  0  0
 13 23  1  0  0  0  0
 14 24  1  0  0  0  0
M  END
