
 OpenBabel02032211263D

 21 22  0  0  0  0  0  0  0  0999 V2000
    1.7793   -0.5808    1.3390 C   0  0  0  0  0  0  0  0  0  0  0  0
    1.8685   -0.4206    0.0088 C   0  0  0  0  0  0  0  0  0  0  0  0
    2.7432   -1.2298   -0.9137 C   0  0  0  0  0  0  0  0  0  0  0  0
    3.6076   -2.2141   -0.3645 C   0  0  0  0  0  0  0  0  0  0  0  0
    4.4253   -2.9724   -1.1885 C   0  0  0  0  0  0  0  0  0  0  0  0
    5.2740   -3.9269   -0.7284 N   0  0  0  0  0  0  0  0  0  0  0  0
    5.9665   -4.4812   -2.1230 S   0  0  0  0  0  0  0  0  0  0  0  0
    5.2485   -3.5724   -3.3022 N   0  0  0  0  0  0  0  0  0  0  0  0
    4.4119   -2.7799   -2.5851 C   0  0  0  0  0  0  0  0  0  0  0  0
    3.5809   -1.8288   -3.1578 C   0  0  0  0  0  0  0  0  0  0  0  0
    2.7296   -1.0320   -2.3459 C   0  0  0  0  0  0  0  0  0  0  0  0
    1.8335   -0.0106   -2.9983 C   0  0  0  0  0  0  0  0  0  0  0  0
    1.7517    0.2271   -4.3173 C   0  0  0  0  0  0  0  0  0  0  0  0
    1.1128    0.0604    1.9077 H   0  0  0  0  0  0  0  0  0  0  0  0
    2.3306   -1.3218    1.8987 H   0  0  0  0  0  0  0  0  0  0  0  0
    1.2394    0.3642   -0.3762 H   0  0  0  0  0  0  0  0  0  0  0  0
    3.6684   -2.4083    0.6935 H   0  0  0  0  0  0  0  0  0  0  0  0
    3.6180   -1.7317   -4.2298 H   0  0  0  0  0  0  0  0  0  0  0  0
    1.1801    0.6072   -2.4057 H   0  0  0  0  0  0  0  0  0  0  0  0
    2.3286   -0.2964   -5.0649 H   0  0  0  0  0  0  0  0  0  0  0  0
    1.0670    0.9889   -4.6779 H   0  0  0  0  0  0  0  0  0  0  0  0
  1  2  2  0  0  0  0
  1 14  1  0  0  0  0
  1 15  1  0  0  0  0
  2  3  1  0  0  0  0
  2 16  1  0  0  0  0
  3  4  2  0  0  0  0
  3 11  1  0  0  0  0
  4  5  1  0  0  0  0
  4 17  1  0  0  0  0
  5  6  2  0  0  0  0
  5  9  1  0  0  0  0
  6  7  1  0  0  0  0
  7  8  1  0  0  0  0
  8  9  2  0  0  0  0
  9 10  1  0  0  0  0
 10 11  2  0  0  0  0
 10 18  1  0  0  0  0
 11 12  1  0  0  0  0
 12 13  2  0  0  0  0
 12 19  1  0  0  0  0
 13 20  1  0  0  0  0
 13 21  1  0  0  0  0
M  END
