
 OpenBabel02032211013D

 22 22  0  0  0  0  0  0  0  0999 V2000
    0.9324    0.1976    0.2107 C   0  0  0  0  0  0  0  0  0  0  0  0
    2.2490    0.0450    0.0153 C   0  0  0  0  0  0  0  0  0  0  0  0
    3.0307    0.6800   -1.0616 C   0  0  0  0  0  0  0  0  0  0  0  0
    2.6789    1.9367   -1.5741 C   0  0  0  0  0  0  0  0  0  0  0  0
    3.4469    2.5364   -2.5785 C   0  0  0  0  0  0  0  0  0  0  0  0
    3.0768    3.7666   -3.0578 O   0  0  0  0  0  0  0  0  0  0  0  0
    4.5859    1.9054   -3.1018 C   0  0  0  0  0  0  0  0  0  0  0  0
    5.4029    2.5616   -4.1391 C   0  0  0  0  0  0  0  0  0  0  0  0
    6.1353    1.9253   -5.0635 C   0  0  0  0  0  0  0  0  0  0  0  0
    4.9596    0.6671   -2.5607 C   0  0  0  0  0  0  0  0  0  0  0  0
    4.1909    0.0674   -1.5572 C   0  0  0  0  0  0  0  0  0  0  0  0
    4.5850   -1.1448   -1.0496 O   0  0  0  0  0  0  0  0  0  0  0  0
    0.4387   -0.3232    1.0257 H   0  0  0  0  0  0  0  0  0  0  0  0
    0.3090    0.8107   -0.4304 H   0  0  0  0  0  0  0  0  0  0  0  0
    2.8071   -0.6170    0.6753 H   0  0  0  0  0  0  0  0  0  0  0  0
    1.8119    2.4551   -1.1775 H   0  0  0  0  0  0  0  0  0  0  0  0
    2.2623    4.0485   -2.6108 H   0  0  0  0  0  0  0  0  0  0  0  0
    5.3729    3.6498   -4.1450 H   0  0  0  0  0  0  0  0  0  0  0  0
    6.1795    0.8444   -5.1375 H   0  0  0  0  0  0  0  0  0  0  0  0
    6.7019    2.4923   -5.7959 H   0  0  0  0  0  0  0  0  0  0  0  0
    5.8617    0.1774   -2.9127 H   0  0  0  0  0  0  0  0  0  0  0  0
    5.3808   -1.4404   -1.5195 H   0  0  0  0  0  0  0  0  0  0  0  0
  1  2  2  0  0  0  0
  1 13  1  0  0  0  0
  1 14  1  0  0  0  0
  2  3  1  0  0  0  0
  2 15  1  0  0  0  0
  3  4  1  0  0  0  0
  3 11  2  0  0  0  0
  4  5  2  0  0  0  0
  4 16  1  0  0  0  0
  5  6  1  0  0  0  0
  5  7  1  0  0  0  0
  6 17  1  0  0  0  0
  7  8  1  0  0  0  0
  7 10  2  0  0  0  0
  8  9  2  0  0  0  0
  8 18  1  0  0  0  0
  9 19  1  0  0  0  0
  9 20  1  0  0  0  0
 10 11  1  0  0  0  0
 10 21  1  0  0  0  0
 11 12  1  0  0  0  0
 12 22  1  0  0  0  0
M  END
