20

C          0.89500       -0.01010        0.03960
C          2.40130       -0.03220        0.04000
C          3.09570        1.18820        0.04180
C          4.48790        1.21260        0.04470
F          5.14360        2.39980        0.04610
C          5.20870        0.02120        0.04750
C          4.54570       -1.21650        0.04570
C          5.36650       -2.47960        0.05160
C          3.12620       -1.25310        0.04020
N          2.43660       -2.50180        0.03510
H          0.49690        1.02700        0.04200
H          0.51190       -0.52370        0.94630
H          0.51060       -0.52090       -0.86810
H          2.55720        2.12810        0.04120
H          6.29090        0.06600        0.05130
H          6.45640       -2.26420        0.05810
H          5.14270       -3.07910       -0.85570
H          5.13220       -3.07550        0.95870
H          2.94070       -3.39850        0.03290
H          1.40910       -2.55280        0.02850
