
 OpenBabel02012213463D

 22 23  0  0  0  0  0  0  0  0999 V2000
    2.3154   -0.2208   -0.3122 C   0  0  0  0  0  0  0  0  0  0  0  0
    0.8389   -0.2527   -0.1010 C   0  0  0  0  0  0  0  0  0  0  0  0
   -0.1930    1.0693   -0.2337 S   0  0  0  0  0  0  0  0  0  0  0  0
   -1.5983    0.2202    0.1451 C   0  0  0  0  0  0  0  0  0  0  0  0
   -2.9485    0.7998    0.2217 C   0  0  0  0  0  0  0  0  0  0  0  0
   -4.3506   -0.0440    0.6253 S   0  0  0  0  0  0  0  0  0  0  0  0
   -5.3815    1.2789    0.4974 C   0  0  0  0  0  0  0  0  0  0  0  0
   -6.8536    1.2533    0.7381 C   0  0  0  0  0  0  0  0  0  0  0  0
   -4.6437    2.3983    0.1351 C   0  0  0  0  0  0  0  0  0  0  0  0
   -3.2786    2.1306   -0.0196 C   0  0  0  0  0  0  0  0  0  0  0  0
   -1.2697   -1.1126    0.3778 C   0  0  0  0  0  0  0  0  0  0  0  0
    0.0978   -1.3769    0.2389 C   0  0  0  0  0  0  0  0  0  0  0  0
    2.6456    0.8066   -0.5722 H   0  0  0  0  0  0  0  0  0  0  0  0
    2.5889   -0.9087   -1.1392 H   0  0  0  0  0  0  0  0  0  0  0  0
    2.8308   -0.5410    0.6172 H   0  0  0  0  0  0  0  0  0  0  0  0
   -7.1811    0.2298    1.0166 H   0  0  0  0  0  0  0  0  0  0  0  0
   -7.3876    1.5656   -0.1834 H   0  0  0  0  0  0  0  0  0  0  0  0
   -7.1075    1.9504    1.5636 H   0  0  0  0  0  0  0  0  0  0  0  0
   -5.0771    3.3790   -0.0118 H   0  0  0  0  0  0  0  0  0  0  0  0
   -2.5586    2.8891   -0.2975 H   0  0  0  0  0  0  0  0  0  0  0  0
   -1.9919   -1.8741    0.6412 H   0  0  0  0  0  0  0  0  0  0  0  0
    0.5308   -2.3579    0.3843 H   0  0  0  0  0  0  0  0  0  0  0  0
  1  2  1  0  0  0  0
  1 13  1  0  0  0  0
  1 14  1  0  0  0  0
  1 15  1  0  0  0  0
  2  3  1  0  0  0  0
  2 12  2  0  0  0  0
  3  4  1  0  0  0  0
  4  5  1  0  0  0  0
  4 11  2  0  0  0  0
  5  6  1  0  0  0  0
  5 10  2  0  0  0  0
  6  7  1  0  0  0  0
  7  8  1  0  0  0  0
  7  9  2  0  0  0  0
  8 16  1  0  0  0  0
  8 17  1  0  0  0  0
  8 18  1  0  0  0  0
  9 10  1  0  0  0  0
  9 19  1  0  0  0  0
 10 20  1  0  0  0  0
 11 12  1  0  0  0  0
 11 21  1  0  0  0  0
 12 22  1  0  0  0  0
M  END
