
  xtb     02012213463D
 xtb: 6.4.1 (23d549d)
 22 23  0     0  0            999 V2000
    2.2883   -0.1948   -0.0108 c   0  0  0  0  0  0  0  0  0  0  0  0
    0.8056   -0.2955    0.0129 c   0  0  0  0  0  0  0  0  0  0  0  0
   -0.1703    1.1365    0.1297 s   0  0  0  0  0  0  0  0  0  0  0  0
   -1.6372    0.1932    0.1118 c   0  0  0  0  0  0  0  0  0  0  0  0
   -2.9126    0.8291    0.1881 c   0  0  0  0  0  0  0  0  0  0  0  0
   -4.3769   -0.1170    0.2389 s   0  0  0  0  0  0  0  0  0  0  0  0
   -5.3541    1.3167    0.3194 c   0  0  0  0  0  0  0  0  0  0  0  0
   -6.8346    1.2136    0.4014 c   0  0  0  0  0  0  0  0  0  0  0  0
   -4.5802    2.4358    0.3061 c   0  0  0  0  0  0  0  0  0  0  0  0
   -3.2000    2.1663    0.2326 c   0  0  0  0  0  0  0  0  0  0  0  0
   -1.3515   -1.1419    0.0206 c   0  0  0  0  0  0  0  0  0  0  0  0
    0.0294   -1.4121   -0.0356 c   0  0  0  0  0  0  0  0  0  0  0  0
    2.6171    0.4853   -0.7956 h   0  0  0  0  0  0  0  0  0  0  0  0
    2.7237   -1.1752   -0.1883 h   0  0  0  0  0  0  0  0  0  0  0  0
    2.6632    0.1874    0.9392 h   0  0  0  0  0  0  0  0  0  0  0  0
   -7.2249    0.6008   -0.4103 h   0  0  0  0  0  0  0  0  0  0  0  0
   -7.2790    2.2042    0.3411 h   0  0  0  0  0  0  0  0  0  0  0  0
   -7.1364    0.7516    1.3420 h   0  0  0  0  0  0  0  0  0  0  0  0
   -4.9871    3.4309    0.3464 h   0  0  0  0  0  0  0  0  0  0  0  0
   -2.4377    2.9250    0.2112 h   0  0  0  0  0  0  0  0  0  0  0  0
   -2.1156   -1.8987   -0.0062 h   0  0  0  0  0  0  0  0  0  0  0  0
    0.4351   -2.4056   -0.1111 h   0  0  0  0  0  0  0  0  0  0  0  0
  1  2  1  0  0  0  0
  2  3  1  0  0  0  0
  3  4  1  0  0  0  0
  4  5  1  0  0  0  0
  5  6  1  0  0  0  0
  6  7  1  0  0  0  0
  7  8  1  0  0  0  0
  7  9  2  0  0  0  0
  5 10  2  0  0  0  0
  9 10  4  0  0  0  0
  4 11  2  0  0  0  0
  2 12  2  0  0  0  0
 11 12  4  0  0  0  0
  1 13  1  0  0  0  0
  1 14  1  0  0  0  0
  1 15  1  0  0  0  0
  8 16  1  0  0  0  0
  8 17  1  0  0  0  0
  8 18  1  0  0  0  0
  9 19  1  0  0  0  0
 10 20  1  0  0  0  0
 11 21  1  0  0  0  0
 12 22  1  0  0  0  0
M  END
