
 OpenBabel02032210503D

 23 23  0  0  0  0  0  0  0  0999 V2000
    1.0680   -0.3029    0.3604 C   0  0  0  0  0  0  0  0  0  0  0  0
    2.2462    0.0449   -0.1740 C   0  0  0  0  0  0  0  0  0  0  0  0
    3.0096    1.2794    0.1654 C   0  0  0  0  0  0  0  0  0  0  0  0
    4.2224    1.5122   -0.5019 C   0  0  0  0  0  0  0  0  0  0  0  0
    4.9977    2.6566   -0.2451 C   0  0  0  0  0  0  0  0  0  0  0  0
    6.2700    2.8109   -1.0173 C   0  0  0  0  0  0  0  0  0  0  0  0
    7.1395    3.8360   -0.9689 C   0  0  0  0  0  0  0  0  0  0  0  0
    6.9697    4.9240   -0.1785 F   0  0  0  0  0  0  0  0  0  0  0  0
    8.2460    3.7929   -1.7564 F   0  0  0  0  0  0  0  0  0  0  0  0
    4.5353    3.5813    0.7138 C   0  0  0  0  0  0  0  0  0  0  0  0
    3.3248    3.3651    1.3965 C   0  0  0  0  0  0  0  0  0  0  0  0
    2.8137    4.3423    2.4292 C   0  0  0  0  0  0  0  0  0  0  0  0
    3.6688    5.4187    2.5920 F   0  0  0  0  0  0  0  0  0  0  0  0
    1.5765    4.8202    2.0372 F   0  0  0  0  0  0  0  0  0  0  0  0
    2.6830    3.6981    3.6463 F   0  0  0  0  0  0  0  0  0  0  0  0
    2.5692    2.2175    1.1166 C   0  0  0  0  0  0  0  0  0  0  0  0
    0.5909   -1.2249    0.0438 H   0  0  0  0  0  0  0  0  0  0  0  0
    0.5549    0.2945    1.1019 H   0  0  0  0  0  0  0  0  0  0  0  0
    2.6697   -0.6295   -0.9140 H   0  0  0  0  0  0  0  0  0  0  0  0
    4.5654    0.7920   -1.2368 H   0  0  0  0  0  0  0  0  0  0  0  0
    6.5255    2.0065   -1.7027 H   0  0  0  0  0  0  0  0  0  0  0  0
    5.0960    4.4663    0.9453 H   0  0  0  0  0  0  0  0  0  0  0  0
    1.6432    2.0745    1.6524 H   0  0  0  0  0  0  0  0  0  0  0  0
  1  2  2  0  0  0  0
  1 17  1  0  0  0  0
  1 18  1  0  0  0  0
  2  3  1  0  0  0  0
  2 19  1  0  0  0  0
  3  4  1  0  0  0  0
  3 16  2  0  0  0  0
  4  5  2  0  0  0  0
  4 20  1  0  0  0  0
  5  6  1  0  0  0  0
  5 10  1  0  0  0  0
  6  7  2  0  0  0  0
  6 21  1  0  0  0  0
  7  8  1  0  0  0  0
  7  9  1  0  0  0  0
 10 11  2  0  0  0  0
 10 22  1  0  0  0  0
 11 12  1  0  0  0  0
 11 16  1  0  0  0  0
 12 13  1  0  0  0  0
 12 14  1  0  0  0  0
 12 15  1  0  0  0  0
 16 23  1  0  0  0  0
M  END
