
 OpenBabel02032211263D

 29 30  0  0  0  0  0  0  0  0999 V2000
    1.2155    0.7196    0.2978 C   0  0  0  0  0  0  0  0  0  0  0  0
    2.3035   -0.0391    0.1084 C   0  0  0  0  0  0  0  0  0  0  0  0
    2.9799   -0.7361    1.2216 C   0  0  0  0  0  0  0  0  0  0  0  0
    2.5788   -2.0431    1.5564 C   0  0  0  0  0  0  0  0  0  0  0  0
    1.5971   -2.6096    0.7810 O   0  0  0  0  0  0  0  0  0  0  0  0
    1.1971   -3.9388    1.0916 C   0  0  0  0  0  0  0  0  0  0  0  0
    3.1920   -2.6858    2.6295 C   0  0  0  0  0  0  0  0  0  0  0  0
    4.1937   -2.0504    3.3844 C   0  0  0  0  0  0  0  0  0  0  0  0
    4.8269   -2.7709    4.5156 C   0  0  0  0  0  0  0  0  0  0  0  0
    4.2324   -3.6780    5.3066 C   0  0  0  0  0  0  0  0  0  0  0  0
    4.6442   -0.7629    3.0365 C   0  0  0  0  0  0  0  0  0  0  0  0
    5.6477   -0.1825    3.7388 N   0  0  0  0  0  0  0  0  0  0  0  0
    6.0750    1.0489    3.3948 C   0  0  0  0  0  0  0  0  0  0  0  0
    5.5449    1.7723    2.3537 C   0  0  0  0  0  0  0  0  0  0  0  0
    4.5132    1.1914    1.6288 C   0  0  0  0  0  0  0  0  0  0  0  0
    4.0285   -0.0988    1.9466 C   0  0  0  0  0  0  0  0  0  0  0  0
    0.7338    1.2138   -0.5397 H   0  0  0  0  0  0  0  0  0  0  0  0
    0.7738    0.8538    1.2808 H   0  0  0  0  0  0  0  0  0  0  0  0
    2.7279   -0.1804   -0.8805 H   0  0  0  0  0  0  0  0  0  0  0  0
    0.3897   -4.2164    0.4077 H   0  0  0  0  0  0  0  0  0  0  0  0
    0.8034   -4.0071    2.1112 H   0  0  0  0  0  0  0  0  0  0  0  0
    2.0221   -4.6425    0.9371 H   0  0  0  0  0  0  0  0  0  0  0  0
    2.9135   -3.6990    2.8971 H   0  0  0  0  0  0  0  0  0  0  0  0
    5.8595   -2.4957    4.7231 H   0  0  0  0  0  0  0  0  0  0  0  0
    3.1977   -3.9761    5.1933 H   0  0  0  0  0  0  0  0  0  0  0  0
    4.7891   -4.1288    6.1236 H   0  0  0  0  0  0  0  0  0  0  0  0
    6.8831    1.4448    4.0026 H   0  0  0  0  0  0  0  0  0  0  0  0
    5.9204    2.7586    2.1089 H   0  0  0  0  0  0  0  0  0  0  0  0
    4.0893    1.7553    0.8009 H   0  0  0  0  0  0  0  0  0  0  0  0
  1  2  2  0  0  0  0
  1 17  1  0  0  0  0
  1 18  1  0  0  0  0
  2  3  1  0  0  0  0
  2 19  1  0  0  0  0
  3  4  1  0  0  0  0
  3 16  2  0  0  0  0
  4  5  1  0  0  0  0
  4  7  2  0  0  0  0
  5  6  1  0  0  0  0
  6 20  1  0  0  0  0
  6 21  1  0  0  0  0
  6 22  1  0  0  0  0
  7  8  1  0  0  0  0
  7 23  1  0  0  0  0
  8  9  1  0  0  0  0
  8 11  2  0  0  0  0
  9 10  2  0  0  0  0
  9 24  1  0  0  0  0
 10 25  1  0  0  0  0
 10 26  1  0  0  0  0
 11 12  1  0  0  0  0
 11 16  1  0  0  0  0
 12 13  2  0  0  0  0
 13 14  1  0  0  0  0
 13 27  1  0  0  0  0
 14 15  2  0  0  0  0
 14 28  1  0  0  0  0
 15 16  1  0  0  0  0
 15 29  1  0  0  0  0
M  END
