
  xtb     02032211273D
 xtb: 6.4.1 (23d549d)
 29 30  0     0  0            999 V2000
    2.9069    0.8704   -0.7153 c   0  0  0  0  0  0  0  0  0  0  0  0
    2.2952    0.4407    0.3774 c   0  0  0  0  0  0  0  0  0  0  0  0
    2.9402   -0.4272    1.3849 c   0  0  0  0  0  0  0  0  0  0  0  0
    2.5574   -1.7299    1.6541 c   0  0  0  0  0  0  0  0  0  0  0  0
    1.5652   -2.4624    1.0700 o   0  0  0  0  0  0  0  0  0  0  0  0
    0.6721   -1.9194    0.1304 c   0  0  0  0  0  0  0  0  0  0  0  0
    3.2537   -2.4931    2.6155 c   0  0  0  0  0  0  0  0  0  0  0  0
    4.3211   -2.0130    3.3284 c   0  0  0  0  0  0  0  0  0  0  0  0
    5.0519   -2.7931    4.3159 c   0  0  0  0  0  0  0  0  0  0  0  0
    4.7652   -4.0266    4.7162 c   0  0  0  0  0  0  0  0  0  0  0  0
    4.7336   -0.6689    3.0817 c   0  0  0  0  0  0  0  0  0  0  0  0
    5.7770   -0.1863    3.7779 n   0  0  0  0  0  0  0  0  0  0  0  0
    6.1636    1.0432    3.5846 c   0  0  0  0  0  0  0  0  0  0  0  0
    5.5311    1.9159    2.6879 c   0  0  0  0  0  0  0  0  0  0  0  0
    4.4693    1.4479    1.9616 c   0  0  0  0  0  0  0  0  0  0  0  0
    4.0359    0.1130    2.1201 c   0  0  0  0  0  0  0  0  0  0  0  0
    2.4206    1.5249   -1.4192 h   0  0  0  0  0  0  0  0  0  0  0  0
    3.9130    0.5672   -0.9554 h   0  0  0  0  0  0  0  0  0  0  0  0
    1.2838    0.7645    0.5926 h   0  0  0  0  0  0  0  0  0  0  0  0
    0.0992   -2.7698   -0.2400 h   0  0  0  0  0  0  0  0  0  0  0  0
    1.1913   -1.4423   -0.7033 h   0  0  0  0  0  0  0  0  0  0  0  0
   -0.0147   -1.2066    0.5946 h   0  0  0  0  0  0  0  0  0  0  0  0
    2.9015   -3.5025    2.7555 h   0  0  0  0  0  0  0  0  0  0  0  0
    5.8963   -2.2674    4.7389 h   0  0  0  0  0  0  0  0  0  0  0  0
    3.9310   -4.5891    4.3318 h   0  0  0  0  0  0  0  0  0  0  0  0
    5.3663   -4.5248    5.4574 h   0  0  0  0  0  0  0  0  0  0  0  0
    7.0130    1.3708    4.1713 h   0  0  0  0  0  0  0  0  0  0  0  0
    5.8762    2.9330    2.5823 h   0  0  0  0  0  0  0  0  0  0  0  0
    3.9544    2.0969    1.2684 h   0  0  0  0  0  0  0  0  0  0  0  0
  1  2  2  0  0  0  0
  2  3  1  0  0  0  0
  3  4  4  0  0  0  0
  4  5  1  0  0  0  0
  5  6  1  0  0  0  0
  4  7  4  0  0  0  0
  7  8  2  0  0  0  0
  8  9  1  0  0  0  0
  9 10  2  0  0  0  0
  8 11  1  0  0  0  0
 11 12  4  0  0  0  0
 12 13  2  0  0  0  0
 13 14  4  0  0  0  0
 14 15  2  0  0  0  0
  3 16  4  0  0  0  0
 11 16  4  0  0  0  0
 15 16  4  0  0  0  0
  1 17  1  0  0  0  0
  1 18  1  0  0  0  0
  2 19  1  0  0  0  0
  6 20  1  0  0  0  0
  6 21  1  0  0  0  0
  6 22  1  0  0  0  0
  7 23  1  0  0  0  0
  9 24  1  0  0  0  0
 10 25  1  0  0  0  0
 10 26  1  0  0  0  0
 13 27  1  0  0  0  0
 14 28  1  0  0  0  0
 15 29  1  0  0  0  0
M  END
