
 OpenBabel02032210573D

 20 20  0  0  0  0  0  0  0  0999 V2000
    1.0870   -0.0515   -0.2311 C   0  0  0  0  0  0  0  0  0  0  0  0
    2.3918   -0.0664    0.0719 C   0  0  0  0  0  0  0  0  0  0  0  0
    3.1685   -1.2662    0.4293 C   0  0  0  0  0  0  0  0  0  0  0  0
    2.8795   -2.5502   -0.0433 C   0  0  0  0  0  0  0  0  0  0  0  0
    1.8487   -2.7578   -0.8777 F   0  0  0  0  0  0  0  0  0  0  0  0
    3.6557   -3.6510    0.3276 C   0  0  0  0  0  0  0  0  0  0  0  0
    3.3165   -4.8620   -0.1447 F   0  0  0  0  0  0  0  0  0  0  0  0
    4.7699   -3.5175    1.1643 C   0  0  0  0  0  0  0  0  0  0  0  0
    5.5158   -4.7282    1.5455 C   0  0  0  0  0  0  0  0  0  0  0  0
    6.8191   -4.7805    1.8472 C   0  0  0  0  0  0  0  0  0  0  0  0
    5.0678   -2.2322    1.6277 C   0  0  0  0  0  0  0  0  0  0  0  0
    6.1038   -2.0265    2.4562 F   0  0  0  0  0  0  0  0  0  0  0  0
    4.2889   -1.1304    1.2585 C   0  0  0  0  0  0  0  0  0  0  0  0
    4.6267    0.0809    1.7311 F   0  0  0  0  0  0  0  0  0  0  0  0
    0.5895    0.8844   -0.4702 H   0  0  0  0  0  0  0  0  0  0  0  0
    0.4727   -0.9460   -0.2463 H   0  0  0  0  0  0  0  0  0  0  0  0
    2.9344    0.8776    0.0917 H   0  0  0  0  0  0  0  0  0  0  0  0
    4.9435   -5.6553    1.5496 H   0  0  0  0  0  0  0  0  0  0  0  0
    7.4633   -3.9070    1.8417 H   0  0  0  0  0  0  0  0  0  0  0  0
    7.2823   -5.7292    2.1041 H   0  0  0  0  0  0  0  0  0  0  0  0
  1  2  2  0  0  0  0
  1 15  1  0  0  0  0
  1 16  1  0  0  0  0
  2  3  1  0  0  0  0
  2 17  1  0  0  0  0
  3  4  1  0  0  0  0
  3 13  2  0  0  0  0
  4  5  1  0  0  0  0
  4  6  2  0  0  0  0
  6  7  1  0  0  0  0
  6  8  1  0  0  0  0
  8  9  1  0  0  0  0
  8 11  2  0  0  0  0
  9 10  2  0  0  0  0
  9 18  1  0  0  0  0
 10 19  1  0  0  0  0
 10 20  1  0  0  0  0
 11 12  1  0  0  0  0
 11 13  1  0  0  0  0
 13 14  1  0  0  0  0
M  END
