
  xtb     02032211343D
 xtb: 6.4.1 (23d549d)
 17 17  0     0  0            999 V2000
    4.4914   -0.0083   -0.0028 C   0  0  0  0  0  0  0  0  0  0  0  0
    3.2824    0.5483   -0.0019 C   0  0  0  0  0  0  0  0  0  0  0  0
    2.0366   -0.1713    0.0007 C   0  0  0  0  0  0  0  0  0  0  0  0
    1.7986   -1.5253    0.0038 C   0  0  0  0  0  0  0  0  0  0  0  0
    0.4384   -1.8486    0.0044 C   0  0  0  0  0  0  0  0  0  0  0  0
   -0.3854   -0.7466    0.0018 C   0  0  0  0  0  0  0  0  0  0  0  0
   -1.8183   -0.7701    0.0008 C   0  0  0  0  0  0  0  0  0  0  0  0
   -2.6227    0.2874   -0.0004 C   0  0  0  0  0  0  0  0  0  0  0  0
   -2.2529    1.5624   -0.0003 F   0  0  0  0  0  0  0  0  0  0  0  0
   -3.9505    0.2058   -0.0020 F   0  0  0  0  0  0  0  0  0  0  0  0
    0.5447    0.7183   -0.0011 S   0  0  0  0  0  0  0  0  0  0  0  0
    5.3827    0.5935   -0.0051 H   0  0  0  0  0  0  0  0  0  0  0  0
    4.6322   -1.0751   -0.0011 H   0  0  0  0  0  0  0  0  0  0  0  0
    3.1862    1.6262   -0.0039 H   0  0  0  0  0  0  0  0  0  0  0  0
    2.5808   -2.2620    0.0055 H   0  0  0  0  0  0  0  0  0  0  0  0
    0.0619   -2.8562    0.0065 H   0  0  0  0  0  0  0  0  0  0  0  0
   -2.2908   -1.7409    0.0006 H   0  0  0  0  0  0  0  0  0  0  0  0
  1  2  2  0  0  0  0
  2  3  1  0  0  0  0
  3  4  4  0  0  0  0
  4  5  4  0  0  0  0
  5  6  4  0  0  0  0
  6  7  1  0  0  0  0
  7  8  2  0  0  0  0
  8  9  1  0  0  0  0
  8 10  1  0  0  0  0
  3 11  1  0  0  0  0
  6 11  1  0  0  0  0
  1 12  1  0  0  0  0
  1 13  1  0  0  0  0
  2 14  1  0  0  0  0
  4 15  1  0  0  0  0
  5 16  1  0  0  0  0
  7 17  1  0  0  0  0
M  END
