16

C          1.07770        0.05020       -0.05240
C          2.57080        0.10380        0.03300
C          3.25490        1.32350        0.07090
C          4.64580        1.32170        0.15080
C          5.32650        0.09990        0.19040
C          6.81940        0.04230        0.27530
N          4.61320       -1.05690        0.15040
N          3.28090       -1.05520        0.07480
H          0.63450        1.06840       -0.08220
H          0.67540       -0.48560        0.83260
H          0.77900       -0.49320       -0.97310
H          2.71950        2.26440        0.03950
H          5.18390        2.26100        0.18080
H          7.26560        1.05930        0.30300
H          7.21970       -0.49630       -0.60900
H          7.11700       -0.50040        1.19680
