35

C          1.09110       -0.16330       -0.05820
C          2.59090       -0.13250       -0.04050
C          3.33410       -1.33680       -0.05360
C          4.73630       -1.30970       -0.05460
C          3.25930        1.11040       -0.01590
C          4.66330        1.12160        0.00410
C          5.36580       -0.06750       -0.03190
C          6.69720        0.26020       -0.04270
C          7.83260       -0.54850       -0.07070
C          9.08650        0.08070       -0.05490
C          9.17810        1.48590       -0.00320
C          8.01780        2.28020        0.02380
C          6.76760        1.64050       -0.01210
N          5.51640        2.18990        0.01850
C          5.17050        3.59870        0.06410
C          6.02174        4.53498        0.68616
C          5.68253        5.89064        0.73124
C          4.48924        6.33416        0.16092
C          3.63388        5.42262       -0.45789
C          3.97018        4.06680       -0.50872
H          0.70460       -1.20450       -0.07670
H          0.71800        0.36600       -0.96020
H          0.69710        0.34180        0.84870
H          2.82750       -2.29360       -0.07310
H          5.30680       -2.22920       -0.07650
H          2.67810        2.01910       -0.02770
H          7.75550       -1.62750       -0.09840
H          9.98840       -0.51710       -0.07290
H         10.15160        1.95820        0.02170
H          8.12390        3.35100        0.08550
H          6.96481        4.23154        1.11601
H          6.34884        6.59908        1.20650
H          4.22720        7.38357        0.19889
H          2.70481        5.76549       -0.89483
H          3.27104        3.38612       -0.97169
35

C          1.09110       -0.16330       -0.05820
C          2.59090       -0.13250       -0.04050
C          3.33410       -1.33680       -0.05360
C          4.73630       -1.30970       -0.05460
C          3.25930        1.11040       -0.01590
C          4.66330        1.12160        0.00410
C          5.36580       -0.06750       -0.03190
C          6.69720        0.26020       -0.04270
C          7.83260       -0.54850       -0.07070
C          9.08650        0.08070       -0.05490
C          9.17810        1.48590       -0.00320
C          8.01780        2.28020        0.02380
C          6.76760        1.64050       -0.01210
N          5.51640        2.18990        0.01850
C          5.17050        3.59870        0.06410
C          3.82357        4.01424        0.10007
C          3.49492        5.37266        0.13989
C          4.50198        6.33793        0.14092
C          5.84013        5.94610        0.10458
C          6.17393        4.58920        0.06830
H          0.70460       -1.20450       -0.07670
H          0.71800        0.36600       -0.96020
H          0.69710        0.34180        0.84870
H          2.82750       -2.29360       -0.07310
H          5.30680       -2.22920       -0.07650
H          2.67810        2.01910       -0.02770
H          7.75550       -1.62750       -0.09840
H          9.98840       -0.51710       -0.07290
H         10.15160        1.95820        0.02170
H          8.12390        3.35100        0.08550
H          3.01867        3.29471        0.12557
H          2.45664        5.67686        0.17375
H          4.24562        7.38905        0.16936
H          6.62163        6.69501        0.09885
H          7.21936        4.32367        0.01313
35

C          1.09110       -0.16330       -0.05820
C          2.59090       -0.13250       -0.04050
C          3.33410       -1.33680       -0.05360
C          4.73630       -1.30970       -0.05460
C          3.25930        1.11040       -0.01590
C          4.66330        1.12160        0.00410
C          5.36580       -0.06750       -0.03190
C          6.69720        0.26020       -0.04270
C          7.83260       -0.54850       -0.07070
C          9.08650        0.08070       -0.05490
C          9.17810        1.48590       -0.00320
C          8.01780        2.28020        0.02380
C          6.76760        1.64050       -0.01210
N          5.51640        2.18990        0.01850
C          5.17050        3.59870        0.06410
C          3.98807        4.03534        0.69609
C          3.65684        5.39318        0.73410
C          4.49581        6.33643        0.14052
C          5.66927        5.92341       -0.49025
C          6.00666        4.56743       -0.52785
H          0.70460       -1.20450       -0.07670
H          0.71800        0.36600       -0.96020
H          0.69710        0.34180        0.84870
H          2.82750       -2.29360       -0.07310
H          5.30680       -2.22920       -0.07650
H          2.67810        2.01910       -0.02770
H          7.75550       -1.62750       -0.09840
H          9.98840       -0.51710       -0.07290
H         10.15160        1.95820        0.02170
H          8.12390        3.35100        0.08550
H          3.32775        3.33622        1.18747
H          2.74904        5.71452        1.22843
H          4.23656        7.38684        0.16887
H          6.31721        6.65443       -0.95655
H          6.90873        4.28176       -1.04855
