23

C          1.37973        1.01670        0.06040
C          2.37030        0.12960       -0.07910
C          3.15030        0.01170       -1.31850
C          2.81780        0.87610       -2.37400
C          3.53980        0.85580       -3.56690
C          4.60380       -0.03680       -3.73210
C          5.41500       -0.06350       -5.00440
F          5.00465        0.84607       -5.93188
F          6.73327        0.19875       -4.78482
F          5.37251       -1.27424       -5.62528
C          4.92080       -0.91790       -2.68190
C          4.21510       -0.90270       -1.46520
C          4.53940       -1.87040       -0.39880
C          4.35077       -1.70860        0.91502
F          3.80423       -0.58281        1.41894
F          4.70958       -2.70298        1.75482
H          0.82233        1.07962        0.98961
H          1.09275        1.69168       -0.74146
H          2.64233       -0.54375        0.72868
H          1.99470        1.58090       -2.26520
H          3.26620        1.54310       -4.36660
H          5.73530       -1.62650       -2.83480
H          4.96886       -2.81385       -0.72392
23

C          2.14561       -0.91390        0.72605
C          2.37030        0.12960       -0.07910
C          3.15030        0.01170       -1.31850
C          2.81780        0.87610       -2.37400
C          3.53980        0.85580       -3.56690
C          4.60380       -0.03680       -3.73210
C          5.41500       -0.06350       -5.00440
F          5.00465        0.84607       -5.93188
F          6.73327        0.19875       -4.78482
F          5.37251       -1.27424       -5.62528
C          4.92080       -0.91790       -2.68190
C          4.21510       -0.90270       -1.46520
C          4.53940       -1.87040       -0.39880
C          4.35077       -1.70860        0.91502
F          3.80423       -0.58281        1.41894
F          4.70958       -2.70298        1.75482
H          1.56445       -0.79433        1.63492
H          2.53778       -1.90408        0.51001
H          1.97765        1.11554        0.15253
H          1.99470        1.58090       -2.26520
H          3.26620        1.54310       -4.36660
H          5.73530       -1.62650       -2.83480
H          4.96886       -2.81385       -0.72392
23

C          1.25741       -0.57973        0.13528
C          2.37030        0.12960       -0.07910
C          3.15030        0.01170       -1.31850
C          2.81780        0.87610       -2.37400
C          3.53980        0.85580       -3.56690
C          4.60380       -0.03680       -3.73210
C          5.41500       -0.06350       -5.00440
F          5.00465        0.84607       -5.93188
F          6.73327        0.19875       -4.78482
F          5.37251       -1.27424       -5.62528
C          4.92080       -0.91790       -2.68190
C          4.21510       -0.90270       -1.46520
C          4.53940       -1.87040       -0.39880
C          4.05074       -3.10763       -0.26328
F          3.17072       -3.62249       -1.14676
F          4.45744       -3.86095        0.78070
H          0.70280       -0.46942        1.06174
H          0.87645       -1.28964       -0.59398
H          2.74347        0.83109        0.66155
H          1.99470        1.58090       -2.26520
H          3.26620        1.54310       -4.36660
H          5.73530       -1.62650       -2.83480
H          5.25706       -1.53816        0.34606
23

C          2.89064       -0.14419        1.12170
C          2.37030        0.12960       -0.07910
C          3.15030        0.01170       -1.31850
C          2.81780        0.87610       -2.37400
C          3.53980        0.85580       -3.56690
C          4.60380       -0.03680       -3.73210
C          5.41500       -0.06350       -5.00440
F          5.00465        0.84607       -5.93188
F          6.73327        0.19875       -4.78482
F          5.37251       -1.27424       -5.62528
C          4.92080       -0.91790       -2.68190
C          4.21510       -0.90270       -1.46520
C          4.53940       -1.87040       -0.39880
C          3.68820       -2.41032        0.47974
F          2.37265       -2.11163        0.46697
F          4.15952       -3.28292        1.39583
H          2.28776       -0.04797        2.01913
H          3.92333       -0.45943        1.24456
H          1.33804        0.45018       -0.18671
H          1.99470        1.58090       -2.26520
H          3.26620        1.54310       -4.36660
H          5.73530       -1.62650       -2.83480
H          5.57939       -2.17732       -0.33197
23

C          2.73173        0.94343        0.91824
C          2.37030        0.12960       -0.07910
C          3.15030        0.01170       -1.31850
C          2.81780        0.87610       -2.37400
C          3.53980        0.85580       -3.56690
C          4.60380       -0.03680       -3.73210
C          5.41500       -0.06350       -5.00440
F          5.00465        0.84607       -5.93188
F          6.73327        0.19875       -4.78482
F          5.37251       -1.27424       -5.62528
C          4.92080       -0.91790       -2.68190
C          4.21510       -0.90270       -1.46520
C          4.53940       -1.87040       -0.39880
C          5.39018       -1.68905        0.61667
F          6.06476       -0.53188        0.77771
F          5.56944       -2.68855        1.50643
H          2.13415        1.00754        1.82205
H          3.61829        1.56914        0.85962
H          1.47775       -0.48560       -0.00976
H          1.99470        1.58090       -2.26520
H          3.26620        1.54310       -4.36660
H          5.73530       -1.62650       -2.83480
H          4.02284       -2.82495       -0.44629
23

C          1.25741       -0.57973        0.13528
C          2.37030        0.12960       -0.07910
C          3.15030        0.01170       -1.31850
C          2.81780        0.87610       -2.37400
C          3.53980        0.85580       -3.56690
C          4.60380       -0.03680       -3.73210
C          5.41500       -0.06350       -5.00440
F          5.00465        0.84607       -5.93188
F          6.73327        0.19875       -4.78482
F          5.37251       -1.27424       -5.62528
C          4.92080       -0.91790       -2.68190
C          4.21510       -0.90270       -1.46520
C          4.53940       -1.87040       -0.39880
C          5.39018       -1.68905        0.61667
F          6.06476       -0.53188        0.77771
F          5.56944       -2.68855        1.50643
H          0.70280       -0.46942        1.06174
H          0.87645       -1.28964       -0.59398
H          2.74347        0.83109        0.66155
H          1.99470        1.58090       -2.26520
H          3.26620        1.54310       -4.36660
H          5.73530       -1.62650       -2.83480
H          4.02284       -2.82495       -0.44629
23

C          2.89064       -0.14419        1.12170
C          2.37030        0.12960       -0.07910
C          3.15030        0.01170       -1.31850
C          2.81780        0.87610       -2.37400
C          3.53980        0.85580       -3.56690
C          4.60380       -0.03680       -3.73210
C          5.41500       -0.06350       -5.00440
F          5.00465        0.84607       -5.93188
F          6.73327        0.19875       -4.78482
F          5.37251       -1.27424       -5.62528
C          4.92080       -0.91790       -2.68190
C          4.21510       -0.90270       -1.46520
C          4.53940       -1.87040       -0.39880
C          5.06820       -3.08849       -0.55534
F          5.38352       -3.57264       -1.77444
F          5.29915       -3.84683        0.53755
H          2.28776       -0.04797        2.01913
H          3.92333       -0.45943        1.24456
H          1.33804        0.45018       -0.18671
H          1.99470        1.58090       -2.26520
H          3.26620        1.54310       -4.36660
H          5.73530       -1.62650       -2.83480
H          4.33101       -1.54902        0.61783
23

C          2.89064       -0.14419        1.12170
C          2.37030        0.12960       -0.07910
C          3.15030        0.01170       -1.31850
C          2.81780        0.87610       -2.37400
C          3.53980        0.85580       -3.56690
C          4.60380       -0.03680       -3.73210
C          5.41500       -0.06350       -5.00440
F          5.00465        0.84607       -5.93188
F          6.73327        0.19875       -4.78482
F          5.37251       -1.27424       -5.62528
C          4.92080       -0.91790       -2.68190
C          4.21510       -0.90270       -1.46520
C          4.53940       -1.87040       -0.39880
C          5.74506       -2.37164       -0.11067
F          6.84598       -2.01084       -0.80194
F          5.86108       -3.25437        0.90428
H          2.28776       -0.04797        2.01913
H          3.92333       -0.45943        1.24456
H          1.33804        0.45018       -0.18671
H          1.99470        1.58090       -2.26520
H          3.26620        1.54310       -4.36660
H          5.73530       -1.62650       -2.83480
H          3.70732       -2.19928        0.21742
23

C          2.73173        0.94343        0.91824
C          2.37030        0.12960       -0.07910
C          3.15030        0.01170       -1.31850
C          2.81780        0.87610       -2.37400
C          3.53980        0.85580       -3.56690
C          4.60380       -0.03680       -3.73210
C          5.41500       -0.06350       -5.00440
F          5.00465        0.84607       -5.93188
F          6.73327        0.19875       -4.78482
F          5.37251       -1.27424       -5.62528
C          4.92080       -0.91790       -2.68190
C          4.21510       -0.90270       -1.46520
C          4.53940       -1.87040       -0.39880
C          4.05074       -3.10763       -0.26328
F          3.17072       -3.62249       -1.14676
F          4.45744       -3.86095        0.78070
H          2.13415        1.00754        1.82205
H          3.61829        1.56914        0.85962
H          1.47775       -0.48560       -0.00976
H          1.99470        1.58090       -2.26520
H          3.26620        1.54310       -4.36660
H          5.73530       -1.62650       -2.83480
H          5.25706       -1.53816        0.34606
23

C          2.14561       -0.91390        0.72605
C          2.37030        0.12960       -0.07910
C          3.15030        0.01170       -1.31850
C          2.81780        0.87610       -2.37400
C          3.53980        0.85580       -3.56690
C          4.60380       -0.03680       -3.73210
C          5.41500       -0.06350       -5.00440
F          5.00465        0.84607       -5.93188
F          6.73327        0.19875       -4.78482
F          5.37251       -1.27424       -5.62528
C          4.92080       -0.91790       -2.68190
C          4.21510       -0.90270       -1.46520
C          4.53940       -1.87040       -0.39880
C          5.39018       -1.68905        0.61667
F          6.06476       -0.53188        0.77771
F          5.56944       -2.68855        1.50643
H          1.56445       -0.79433        1.63492
H          2.53778       -1.90408        0.51001
H          1.97765        1.11554        0.15253
H          1.99470        1.58090       -2.26520
H          3.26620        1.54310       -4.36660
H          5.73530       -1.62650       -2.83480
H          4.02284       -2.82495       -0.44629
