 xtb: 6.5.0 (unknown)
          08112216353D

 23  0  0     0  0            999 V2000
    2.7429    2.8175    0.0289 c   0  0  0  0  0  0  0  0  0  0  0  0
    2.2806    1.6834    0.5362 c   0  0  0  0  0  0  0  0  0  0  0  0
    0.9428    1.1467    0.2973 c   0  0  0  0  0  0  0  0  0  0  0  0
   -0.1429    2.0118    0.1591 c   0  0  0  0  0  0  0  0  0  0  0  0
   -1.4321    1.5408    0.0180 c   0  0  0  0  0  0  0  0  0  0  0  0
   -1.6569    0.1704    0.0354 c   0  0  0  0  0  0  0  0  0  0  0  0
   -3.0427   -0.3954   -0.0821 c   0  0  0  0  0  0  0  0  0  0  0  0
   -3.9931    0.5409   -0.1925 f   0  0  0  0  0  0  0  0  0  0  0  0
   -3.1740   -1.1999   -1.1535 f   0  0  0  0  0  0  0  0  0  0  0  0
   -3.3725   -1.1486    0.9850 f   0  0  0  0  0  0  0  0  0  0  0  0
   -0.5969   -0.7120    0.1687 c   0  0  0  0  0  0  0  0  0  0  0  0
    0.7071   -0.2392    0.2773 c   0  0  0  0  0  0  0  0  0  0  0  0
    1.7785   -1.2328    0.3586 c   0  0  0  0  0  0  0  0  0  0  0  0
    2.9282   -1.1872   -0.2942 c   0  0  0  0  0  0  0  0  0  0  0  0
    3.3285   -0.2527   -1.1438 f   0  0  0  0  0  0  0  0  0  0  0  0
    3.8600   -2.1304   -0.2094 f   0  0  0  0  0  0  0  0  0  0  0  0
    3.7348    3.1692    0.2521 h   0  0  0  0  0  0  0  0  0  0  0  0
    2.1643    3.4191   -0.6511 h   0  0  0  0  0  0  0  0  0  0  0  0
    2.9126    1.0845    1.1797 h   0  0  0  0  0  0  0  0  0  0  0  0
    0.0320    3.0757    0.1883 h   0  0  0  0  0  0  0  0  0  0  0  0
   -2.2593    2.2251   -0.0874 h   0  0  0  0  0  0  0  0  0  0  0  0
   -0.7844   -1.7755    0.1714 h   0  0  0  0  0  0  0  0  0  0  0  0
    1.5948   -2.1162    0.9520 h   0  0  0  0  0  0  0  0  0  0  0  0
M  END
