
 OpenBabel02032211033D

 26 26  0  0  0  0  0  0  0  0999 V2000
    1.0308    0.1139    0.1116 C   0  0  0  0  0  0  0  0  0  0  0  0
    2.3604   -0.0349    0.0415 C   0  0  0  0  0  0  0  0  0  0  0  0
    3.1000   -0.1728   -1.2203 C   0  0  0  0  0  0  0  0  0  0  0  0
    4.2892   -0.9224   -1.2508 C   0  0  0  0  0  0  0  0  0  0  0  0
    5.0645   -1.0246   -2.4206 C   0  0  0  0  0  0  0  0  0  0  0  0
    6.3414   -1.7568   -2.3722 C   0  0  0  0  0  0  0  0  0  0  0  0
    7.4151   -1.5083   -3.1362 C   0  0  0  0  0  0  0  0  0  0  0  0
    4.5931   -0.4157   -3.5875 C   0  0  0  0  0  0  0  0  0  0  0  0
    3.4270    0.3540   -3.5546 C   0  0  0  0  0  0  0  0  0  0  0  0
    2.9301    1.2261   -5.0182 S   0  0  0  0  0  0  0  0  0  0  0  0
    1.8763    0.0709   -5.8541 C   0  0  0  0  0  0  0  0  0  0  0  0
    2.1200    2.3549   -4.5920 O   0  0  0  0  0  0  0  0  0  0  0  0
    4.1104    1.4254   -5.8310 O   0  0  0  0  0  0  0  0  0  0  0  0
    2.6891    0.4929   -2.3783 C   0  0  0  0  0  0  0  0  0  0  0  0
    0.5369    0.2288    1.0710 H   0  0  0  0  0  0  0  0  0  0  0  0
    0.3973    0.1207   -0.7697 H   0  0  0  0  0  0  0  0  0  0  0  0
    2.9478   -0.0561    0.9567 H   0  0  0  0  0  0  0  0  0  0  0  0
    4.6244   -1.4198   -0.3412 H   0  0  0  0  0  0  0  0  0  0  0  0
    6.4246   -2.5295   -1.6102 H   0  0  0  0  0  0  0  0  0  0  0  0
    7.4420   -0.7414   -3.9040 H   0  0  0  0  0  0  0  0  0  0  0  0
    8.3312   -2.0749   -2.9914 H   0  0  0  0  0  0  0  0  0  0  0  0
    5.1318   -0.5214   -4.5248 H   0  0  0  0  0  0  0  0  0  0  0  0
    1.0041   -0.1413   -5.2337 H   0  0  0  0  0  0  0  0  0  0  0  0
    2.4393   -0.8420   -6.0586 H   0  0  0  0  0  0  0  0  0  0  0  0
    1.5564    0.5263   -6.7938 H   0  0  0  0  0  0  0  0  0  0  0  0
    1.8009    1.1226   -2.3632 H   0  0  0  0  0  0  0  0  0  0  0  0
  1  2  2  0  0  0  0
  1 15  1  0  0  0  0
  1 16  1  0  0  0  0
  2  3  1  0  0  0  0
  2 17  1  0  0  0  0
  3  4  1  0  0  0  0
  3 14  2  0  0  0  0
  4  5  2  0  0  0  0
  4 18  1  0  0  0  0
  5  6  1  0  0  0  0
  5  8  1  0  0  0  0
  6  7  2  0  0  0  0
  6 19  1  0  0  0  0
  7 20  1  0  0  0  0
  7 21  1  0  0  0  0
  8  9  2  0  0  0  0
  8 22  1  0  0  0  0
  9 10  1  0  0  0  0
  9 14  1  0  0  0  0
 10 11  1  0  0  0  0
 10 12  2  0  0  0  0
 10 13  2  0  0  0  0
 11 23  1  0  0  0  0
 11 24  1  0  0  0  0
 11 25  1  0  0  0  0
 14 26  1  0  0  0  0
M  END
