
  xtb     02032211353D
 xtb: 6.4.1 (23d549d)
 22 23  0     0  0            999 V2000
    4.0490    0.5893   -0.0984 C   0  0  0  0  0  0  0  0  0  0  0  0
    3.3082   -0.5128   -0.1053 C   0  0  0  0  0  0  0  0  0  0  0  0
    1.8551   -0.5772   -0.0243 C   0  0  0  0  0  0  0  0  0  0  0  0
    1.2235   -1.8238    0.0570 C   0  0  0  0  0  0  0  0  0  0  0  0
   -0.1469   -1.9315    0.1477 C   0  0  0  0  0  0  0  0  0  0  0  0
   -0.9751   -0.8063    0.1440 C   0  0  0  0  0  0  0  0  0  0  0  0
   -2.4183   -0.9582    0.2938 C   0  0  0  0  0  0  0  0  0  0  0  0
   -3.1152   -1.9456   -0.2530 C   0  0  0  0  0  0  0  0  0  0  0  0
   -0.3373    0.4403    0.0462 C   0  0  0  0  0  0  0  0  0  0  0  0
   -1.0895    1.6650   -0.0197 N   0  0  0  0  0  0  0  0  0  0  0  0
   -2.2465    1.6143   -0.3828 O   0  0  0  0  0  0  0  0  0  0  0  0
   -0.5126    2.6903    0.2828 O   0  0  0  0  0  0  0  0  0  0  0  0
    1.0437    0.5517   -0.0280 C   0  0  0  0  0  0  0  0  0  0  0  0
    5.1222    0.5389   -0.1599 H   0  0  0  0  0  0  0  0  0  0  0  0
    3.6274    1.5771   -0.0284 H   0  0  0  0  0  0  0  0  0  0  0  0
    3.7968   -1.4772   -0.1680 H   0  0  0  0  0  0  0  0  0  0  0  0
    1.8270   -2.7202    0.0589 H   0  0  0  0  0  0  0  0  0  0  0  0
   -0.6019   -2.9053    0.2435 H   0  0  0  0  0  0  0  0  0  0  0  0
   -2.9273   -0.2049    0.8790 H   0  0  0  0  0  0  0  0  0  0  0  0
   -2.6601   -2.6828   -0.8939 H   0  0  0  0  0  0  0  0  0  0  0  0
   -4.1777   -2.0285   -0.1072 H   0  0  0  0  0  0  0  0  0  0  0  0
    1.4658    1.5415   -0.1056 H   0  0  0  0  0  0  0  0  0  0  0  0
  1  2  2  0  0  0  0
  2  3  1  0  0  0  0
  3  4  4  0  0  0  0
  4  5  4  0  0  0  0
  5  6  4  0  0  0  0
  6  7  1  0  0  0  0
  7  8  2  0  0  0  0
  6  9  4  0  0  0  0
  9 10  1  0  0  0  0
 10 11  4  0  0  0  0
 10 12  4  0  0  0  0
 11 12  1  0  0  0  0
  3 13  4  0  0  0  0
  9 13  4  0  0  0  0
  1 14  1  0  0  0  0
  1 15  1  0  0  0  0
  2 16  1  0  0  0  0
  4 17  1  0  0  0  0
  5 18  1  0  0  0  0
  7 19  1  0  0  0  0
  8 20  1  0  0  0  0
  8 21  1  0  0  0  0
 13 22  1  0  0  0  0
M  END
