
  xtb     02032211353D
 xtb: 6.4.1 (23d549d)
 23 23  0     0  0            999 V2000
    3.8914   -1.3096   -0.0555 C   0  0  0  0  0  0  0  0  0  0  0  0
    3.0830   -0.2602    0.0317 C   0  0  0  0  0  0  0  0  0  0  0  0
    1.6274   -0.2828    0.0220 C   0  0  0  0  0  0  0  0  0  0  0  0
    0.8704   -1.4504   -0.0135 C   0  0  0  0  0  0  0  0  0  0  0  0
   -0.4516   -1.4669   -0.0183 N   0  0  0  0  0  0  0  0  0  0  0  0
   -1.1107   -0.3218    0.0101 C   0  0  0  0  0  0  0  0  0  0  0  0
   -2.4545   -0.3572   -0.0026 O   0  0  0  0  0  0  0  0  0  0  0  0
   -3.0436   -1.6419   -0.0407 C   0  0  0  0  0  0  0  0  0  0  0  0
   -0.4700    0.9398    0.0499 C   0  0  0  0  0  0  0  0  0  0  0  0
   -1.2724    2.1540    0.0906 C   0  0  0  0  0  0  0  0  0  0  0  0
   -0.8273    3.3888   -0.1080 C   0  0  0  0  0  0  0  0  0  0  0  0
    0.9155    0.9210    0.0597 C   0  0  0  0  0  0  0  0  0  0  0  0
    4.9614   -1.1926   -0.0411 H   0  0  0  0  0  0  0  0  0  0  0  0
    3.5277   -2.3184   -0.1459 H   0  0  0  0  0  0  0  0  0  0  0  0
    3.5139    0.7308    0.1150 H   0  0  0  0  0  0  0  0  0  0  0  0
    1.3312   -2.4277   -0.0323 H   0  0  0  0  0  0  0  0  0  0  0  0
   -4.1192   -1.4771   -0.0419 H   0  0  0  0  0  0  0  0  0  0  0  0
   -2.7478   -2.2281    0.8321 H   0  0  0  0  0  0  0  0  0  0  0  0
   -2.7387   -2.1792   -0.9412 H   0  0  0  0  0  0  0  0  0  0  0  0
   -2.3224    1.9855    0.2857 H   0  0  0  0  0  0  0  0  0  0  0  0
    0.2029    3.6088   -0.3319 H   0  0  0  0  0  0  0  0  0  0  0  0
   -1.4904    4.2353   -0.0617 H   0  0  0  0  0  0  0  0  0  0  0  0
    1.4608    1.8524    0.1077 H   0  0  0  0  0  0  0  0  0  0  0  0
  1  2  2  0  0  0  0
  2  3  1  0  0  0  0
  3  4  4  0  0  0  0
  4  5  4  0  0  0  0
  5  6  4  0  0  0  0
  6  7  1  0  0  0  0
  7  8  1  0  0  0  0
  6  9  4  0  0  0  0
  9 10  1  0  0  0  0
 10 11  2  0  0  0  0
  3 12  4  0  0  0  0
  9 12  4  0  0  0  0
  1 13  1  0  0  0  0
  1 14  1  0  0  0  0
  2 15  1  0  0  0  0
  4 16  1  0  0  0  0
  8 17  1  0  0  0  0
  8 18  1  0  0  0  0
  8 19  1  0  0  0  0
 10 20  1  0  0  0  0
 11 21  1  0  0  0  0
 11 22  1  0  0  0  0
 12 23  1  0  0  0  0
M  END
