
 OpenBabel02012213513D

 19 20  0  0  0  0  0  0  0  0999 V2000
    0.8848   -0.1017   -0.0396 C   0  0  0  0  0  0  0  0  0  0  0  0
    2.3803   -0.0780   -0.0371 C   0  0  0  0  0  0  0  0  0  0  0  0
    3.1417   -1.2668   -0.0349 C   0  0  0  0  0  0  0  0  0  0  0  0
    4.5562   -1.2936   -0.0312 C   0  0  0  0  0  0  0  0  0  0  0  0
    5.1389   -2.5038   -0.0293 F   0  0  0  0  0  0  0  0  0  0  0  0
    5.3799   -0.1525   -0.0288 C   0  0  0  0  0  0  0  0  0  0  0  0
    6.8710   -0.2510   -0.0236 C   0  0  0  0  0  0  0  0  0  0  0  0
    4.6663    1.0756   -0.0311 C   0  0  0  0  0  0  0  0  0  0  0  0
    5.2186    2.3006   -0.0303 N   0  0  0  0  0  0  0  0  0  0  0  0
    3.9682    3.3897   -0.0340 S   0  0  0  0  0  0  0  0  0  0  0  0
    2.6636    2.3657   -0.0371 N   0  0  0  0  0  0  0  0  0  0  0  0
    3.1534    1.1152   -0.0355 C   0  0  0  0  0  0  0  0  0  0  0  0
    0.4981   -1.1257   -0.0422 H   0  0  0  0  0  0  0  0  0  0  0  0
    0.5026    0.4069   -0.9303 H   0  0  0  0  0  0  0  0  0  0  0  0
    0.5002    0.4032    0.8521 H   0  0  0  0  0  0  0  0  0  0  0  0
    2.6293   -2.2292   -0.0362 H   0  0  0  0  0  0  0  0  0  0  0  0
    7.2130   -1.2904   -0.0214 H   0  0  0  0  0  0  0  0  0  0  0  0
    7.2753    0.2383    0.8682 H   0  0  0  0  0  0  0  0  0  0  0  0
    7.2818    0.2369   -0.9132 H   0  0  0  0  0  0  0  0  0  0  0  0
  1  2  1  0  0  0  0
  1 13  1  0  0  0  0
  1 14  1  0  0  0  0
  1 15  1  0  0  0  0
  2  3  2  0  0  0  0
  2 12  1  0  0  0  0
  3  4  1  0  0  0  0
  3 16  1  0  0  0  0
  4  5  1  0  0  0  0
  4  6  2  0  0  0  0
  6  7  1  0  0  0  0
  6  8  1  0  0  0  0
  7 17  1  0  0  0  0
  7 18  1  0  0  0  0
  7 19  1  0  0  0  0
  8  9  2  0  0  0  0
  8 12  1  0  0  0  0
  9 10  1  0  0  0  0
 10 11  1  0  0  0  0
 11 12  2  0  0  0  0
M  END
