
  xtb     02032211353D
 xtb: 6.4.1 (23d549d)
 27 27  0     0  0            999 V2000
   -4.3355   -0.7567    0.3586 C   0  0  0  0  0  0  0  0  0  0  0  0
   -3.5274    0.1461   -0.1826 C   0  0  0  0  0  0  0  0  0  0  0  0
   -2.0714    0.1059   -0.1199 C   0  0  0  0  0  0  0  0  0  0  0  0
   -1.3762   -1.0894   -0.0715 C   0  0  0  0  0  0  0  0  0  0  0  0
    0.0225   -1.1353   -0.0525 C   0  0  0  0  0  0  0  0  0  0  0  0
    0.7378   -2.4028    0.0260 C   0  0  0  0  0  0  0  0  0  0  0  0
    0.2385   -3.5222    0.5369 C   0  0  0  0  0  0  0  0  0  0  0  0
    0.6803    0.1029   -0.1190 C   0  0  0  0  0  0  0  0  0  0  0  0
    2.1649    0.2432   -0.1589 C   0  0  0  0  0  0  0  0  0  0  0  0
    2.9451   -0.5647   -0.6047 O   0  0  0  0  0  0  0  0  0  0  0  0
    2.5479    1.4126    0.3589 O   0  0  0  0  0  0  0  0  0  0  0  0
    3.9418    1.6719    0.3364 C   0  0  0  0  0  0  0  0  0  0  0  0
    0.0315    1.2615   -0.1527 N   0  0  0  0  0  0  0  0  0  0  0  0
   -1.2919    1.2920   -0.1357 C   0  0  0  0  0  0  0  0  0  0  0  0
   -1.8456    2.5336   -0.0705 N   0  0  0  0  0  0  0  0  0  0  0  0
   -5.4055   -0.6824    0.2690 H   0  0  0  0  0  0  0  0  0  0  0  0
   -3.9611   -1.5921    0.9252 H   0  0  0  0  0  0  0  0  0  0  0  0
   -3.9594    0.9842   -0.7173 H   0  0  0  0  0  0  0  0  0  0  0  0
   -1.9300   -2.0155   -0.0960 H   0  0  0  0  0  0  0  0  0  0  0  0
    1.7515   -2.3876   -0.3440 H   0  0  0  0  0  0  0  0  0  0  0  0
   -0.7535   -3.5832    0.9539 H   0  0  0  0  0  0  0  0  0  0  0  0
    0.8202   -4.4271    0.5710 H   0  0  0  0  0  0  0  0  0  0  0  0
    4.0758    2.6555    0.7790 H   0  0  0  0  0  0  0  0  0  0  0  0
    4.3157    1.6575   -0.6898 H   0  0  0  0  0  0  0  0  0  0  0  0
    4.4796    0.9154    0.9129 H   0  0  0  0  0  0  0  0  0  0  0  0
   -1.2107    3.2983   -0.2245 H   0  0  0  0  0  0  0  0  0  0  0  0
   -2.8109    2.6661   -0.3128 H   0  0  0  0  0  0  0  0  0  0  0  0
  1  2  2  0  0  0  0
  2  3  1  0  0  0  0
  3  4  4  0  0  0  0
  4  5  4  0  0  0  0
  5  6  1  0  0  0  0
  6  7  2  0  0  0  0
  5  8  4  0  0  0  0
  8  9  1  0  0  0  0
  9 10  2  0  0  0  0
  9 11  1  0  0  0  0
 11 12  1  0  0  0  0
  8 13  4  0  0  0  0
  3 14  4  0  0  0  0
 13 14  4  0  0  0  0
 14 15  4  0  0  0  0
  1 16  1  0  0  0  0
  1 17  1  0  0  0  0
  2 18  1  0  0  0  0
  4 19  1  0  0  0  0
  6 20  1  0  0  0  0
  7 21  1  0  0  0  0
  7 22  1  0  0  0  0
 12 23  1  0  0  0  0
 12 24  1  0  0  0  0
 12 25  1  0  0  0  0
 15 26  1  0  0  0  0
 15 27  1  0  0  0  0
M  END
