
  xtb     02032211353D
 xtb: 6.4.1 (23d549d)
 16 16  0     0  0            999 V2000
   -3.3960    0.7635   -0.0017 C   0  0  0  0  0  0  0  0  0  0  0  0
   -2.6648   -0.3472   -0.0015 C   0  0  0  0  0  0  0  0  0  0  0  0
   -1.2294   -0.3866    0.0001 C   0  0  0  0  0  0  0  0  0  0  0  0
   -0.4262   -1.5041   -0.0011 C   0  0  0  0  0  0  0  0  0  0  0  0
    0.8949   -1.2874   -0.0003 N   0  0  0  0  0  0  0  0  0  0  0  0
    1.1898   -0.0272    0.0016 C   0  0  0  0  0  0  0  0  0  0  0  0
    2.5114    0.5349    0.0017 C   0  0  0  0  0  0  0  0  0  0  0  0
    3.6160   -0.2072   -0.0047 C   0  0  0  0  0  0  0  0  0  0  0  0
   -0.2216    1.0272    0.0028 S   0  0  0  0  0  0  0  0  0  0  0  0
   -4.4710    0.7322   -0.0033 H   0  0  0  0  0  0  0  0  0  0  0  0
   -2.9372    1.7387   -0.0001 H   0  0  0  0  0  0  0  0  0  0  0  0
   -3.1393   -1.3204   -0.0032 H   0  0  0  0  0  0  0  0  0  0  0  0
   -0.7893   -2.5168   -0.0026 H   0  0  0  0  0  0  0  0  0  0  0  0
    2.5571    1.6154    0.0068 H   0  0  0  0  0  0  0  0  0  0  0  0
    3.5543   -1.2813   -0.0102 H   0  0  0  0  0  0  0  0  0  0  0  0
    4.5955    0.2377   -0.0049 H   0  0  0  0  0  0  0  0  0  0  0  0
  1  2  2  0  0  0  0
  2  3  1  0  0  0  0
  3  4  4  0  0  0  0
  4  5  4  0  0  0  0
  5  6  2  0  0  0  0
  6  7  1  0  0  0  0
  7  8  2  0  0  0  0
  3  9  1  0  0  0  0
  6  9  1  0  0  0  0
  1 10  1  0  0  0  0
  1 11  1  0  0  0  0
  2 12  1  0  0  0  0
  4 13  1  0  0  0  0
  7 14  1  0  0  0  0
  8 15  1  0  0  0  0
  8 16  1  0  0  0  0
M  END
