
  xtb     02032211343D
 xtb: 6.4.1 (23d549d)
 21 21  0     0  0            999 V2000
   -4.7502   -1.1237    0.0445 C   0  0  0  0  0  0  0  0  0  0  0  0
   -3.5027   -1.4003   -0.3170 C   0  0  0  0  0  0  0  0  0  0  0  0
   -2.3447   -0.5271   -0.1748 C   0  0  0  0  0  0  0  0  0  0  0  0
   -2.4368    0.7941    0.2742 C   0  0  0  0  0  0  0  0  0  0  0  0
   -1.3125    1.5828    0.3722 C   0  0  0  0  0  0  0  0  0  0  0  0
   -0.0548    1.0709    0.0453 C   0  0  0  0  0  0  0  0  0  0  0  0
    1.0572    1.9421    0.0721 C   0  0  0  0  0  0  0  0  0  0  0  0
    1.9317    2.6833    0.0594 N   0  0  0  0  0  0  0  0  0  0  0  0
    0.0664   -0.2613   -0.3812 C   0  0  0  0  0  0  0  0  0  0  0  0
    1.3602   -0.8597   -0.7137 C   0  0  0  0  0  0  0  0  0  0  0  0
    2.4630   -0.7381    0.0067 C   0  0  0  0  0  0  0  0  0  0  0  0
    2.5901   -0.1022    1.1599 F   0  0  0  0  0  0  0  0  0  0  0  0
    3.6163   -1.3121   -0.3134 F   0  0  0  0  0  0  0  0  0  0  0  0
   -1.0849   -1.0268   -0.5046 C   0  0  0  0  0  0  0  0  0  0  0  0
   -5.5425   -1.8380   -0.0983 H   0  0  0  0  0  0  0  0  0  0  0  0
   -5.0359   -0.1900    0.4973 H   0  0  0  0  0  0  0  0  0  0  0  0
   -3.2857   -2.3659   -0.7567 H   0  0  0  0  0  0  0  0  0  0  0  0
   -3.3966    1.2119    0.5318 H   0  0  0  0  0  0  0  0  0  0  0  0
   -1.3902    2.6101    0.6964 H   0  0  0  0  0  0  0  0  0  0  0  0
    1.4142   -1.4869   -1.5908 H   0  0  0  0  0  0  0  0  0  0  0  0
   -0.9947   -2.0473   -0.8493 H   0  0  0  0  0  0  0  0  0  0  0  0
  1  2  2  0  0  0  0
  2  3  1  0  0  0  0
  3  4  4  0  0  0  0
  4  5  4  0  0  0  0
  5  6  4  0  0  0  0
  6  7  1  0  0  0  0
  7  8  3  0  0  0  0
  6  9  4  0  0  0  0
  9 10  1  0  0  0  0
 10 11  2  0  0  0  0
 11 12  1  0  0  0  0
 11 13  1  0  0  0  0
  3 14  4  0  0  0  0
  9 14  4  0  0  0  0
  1 15  1  0  0  0  0
  1 16  1  0  0  0  0
  2 17  1  0  0  0  0
  4 18  1  0  0  0  0
  5 19  1  0  0  0  0
 10 20  1  0  0  0  0
 14 21  1  0  0  0  0
M  END
