
  xtb     02032211343D
 xtb: 6.4.1 (23d549d)
 19 19  0     0  0            999 V2000
    0.9931    2.7145   -0.8033 C   0  0  0  0  0  0  0  0  0  0  0  0
    0.4422    1.7605   -0.0638 C   0  0  0  0  0  0  0  0  0  0  0  0
    0.9821    0.4071    0.0121 C   0  0  0  0  0  0  0  0  0  0  0  0
    2.2504    0.2538   -0.3601 N   0  0  0  0  0  0  0  0  0  0  0  0
    2.8363   -0.9162   -0.2304 C   0  0  0  0  0  0  0  0  0  0  0  0
    2.2080   -2.0235    0.3247 C   0  0  0  0  0  0  0  0  0  0  0  0
    0.8823   -1.8933    0.6930 C   0  0  0  0  0  0  0  0  0  0  0  0
    0.2281   -0.6760    0.5092 C   0  0  0  0  0  0  0  0  0  0  0  0
   -1.1935   -0.5947    0.8388 C   0  0  0  0  0  0  0  0  0  0  0  0
   -2.1255   -0.0232    0.0945 C   0  0  0  0  0  0  0  0  0  0  0  0
   -1.9579    0.5742   -1.0776 F   0  0  0  0  0  0  0  0  0  0  0  0
   -3.4164    0.0030    0.4197 F   0  0  0  0  0  0  0  0  0  0  0  0
    0.5937    3.7132   -0.8327 H   0  0  0  0  0  0  0  0  0  0  0  0
    1.8609    2.5060   -1.4045 H   0  0  0  0  0  0  0  0  0  0  0  0
   -0.4346    1.9612    0.5364 H   0  0  0  0  0  0  0  0  0  0  0  0
    3.8626   -0.9645   -0.5706 H   0  0  0  0  0  0  0  0  0  0  0  0
    2.7348   -2.9555    0.4546 H   0  0  0  0  0  0  0  0  0  0  0  0
    0.3397   -2.7336    1.1032 H   0  0  0  0  0  0  0  0  0  0  0  0
   -1.5286   -1.0962    1.7350 H   0  0  0  0  0  0  0  0  0  0  0  0
  1  2  2  0  0  0  0
  2  3  1  0  0  0  0
  3  4  4  0  0  0  0
  4  5  4  0  0  0  0
  5  6  4  0  0  0  0
  6  7  4  0  0  0  0
  3  8  4  0  0  0  0
  7  8  4  0  0  0  0
  8  9  1  0  0  0  0
  9 10  2  0  0  0  0
 10 11  1  0  0  0  0
 10 12  1  0  0  0  0
  1 13  1  0  0  0  0
  1 14  1  0  0  0  0
  2 15  1  0  0  0  0
  5 16  1  0  0  0  0
  6 17  1  0  0  0  0
  7 18  1  0  0  0  0
  9 19  1  0  0  0  0
M  END
