
  xtb     02012213393D
 xtb: 6.4.1 (23d549d)
 38 41  0     0  0            999 V2000
    2.4967    0.2501   -0.0112 c   0  0  0  0  0  0  0  0  0  0  0  0
    1.0009    0.1776   -0.0356 c   0  0  0  0  0  0  0  0  0  0  0  0
    0.3251   -0.2948   -1.1531 c   0  0  0  0  0  0  0  0  0  0  0  0
   -1.0547   -0.3798   -1.1680 c   0  0  0  0  0  0  0  0  0  0  0  0
   -1.7848    0.0153   -0.0535 c   0  0  0  0  0  0  0  0  0  0  0  0
   -3.1873   -0.0508   -0.0738 n   0  0  0  0  0  0  0  0  0  0  0  0
   -4.0316   -0.5855    0.8787 c   0  0  0  0  0  0  0  0  0  0  0  0
   -3.5772   -1.3376    2.0392 c   0  0  0  0  0  0  0  0  0  0  0  0
   -4.3139   -1.2523    3.2198 c   0  0  0  0  0  0  0  0  0  0  0  0
   -3.9202   -1.9588    4.3395 c   0  0  0  0  0  0  0  0  0  0  0  0
   -2.7933   -2.7639    4.2937 c   0  0  0  0  0  0  0  0  0  0  0  0
   -2.0712   -2.8719    3.1167 c   0  0  0  0  0  0  0  0  0  0  0  0
   -2.4585   -2.1671    1.9923 c   0  0  0  0  0  0  0  0  0  0  0  0
   -5.2926   -0.3832    0.6078 n   0  0  0  0  0  0  0  0  0  0  0  0
   -4.0007    0.5345   -1.0179 c   0  0  0  0  0  0  0  0  0  0  0  0
   -5.3239    0.3120   -0.5686 c   0  0  0  0  0  0  0  0  0  0  0  0
   -6.4020    0.7888   -1.3069 c   0  0  0  0  0  0  0  0  0  0  0  0
   -6.1271    1.4847   -2.4645 c   0  0  0  0  0  0  0  0  0  0  0  0
   -4.8163    1.7183   -2.8867 c   0  0  0  0  0  0  0  0  0  0  0  0
   -3.7313    1.2526   -2.1718 c   0  0  0  0  0  0  0  0  0  0  0  0
   -1.1203    0.4957    1.0706 c   0  0  0  0  0  0  0  0  0  0  0  0
    0.2582    0.5675    1.0741 c   0  0  0  0  0  0  0  0  0  0  0  0
    2.9050    0.2181   -1.0182 h   0  0  0  0  0  0  0  0  0  0  0  0
    2.9020   -0.5936    0.5480 h   0  0  0  0  0  0  0  0  0  0  0  0
    2.8300    1.1637    0.4766 h   0  0  0  0  0  0  0  0  0  0  0  0
    0.8840   -0.6051   -2.0242 h   0  0  0  0  0  0  0  0  0  0  0  0
   -1.5710   -0.7631   -2.0358 h   0  0  0  0  0  0  0  0  0  0  0  0
   -5.1917   -0.6254    3.2359 h   0  0  0  0  0  0  0  0  0  0  0  0
   -4.4924   -1.8824    5.2524 h   0  0  0  0  0  0  0  0  0  0  0  0
   -2.4833   -3.3135    5.1703 h   0  0  0  0  0  0  0  0  0  0  0  0
   -1.2032   -3.5134    3.0713 h   0  0  0  0  0  0  0  0  0  0  0  0
   -1.9012   -2.2782    1.0739 h   0  0  0  0  0  0  0  0  0  0  0  0
   -7.4121    0.6171   -0.9715 h   0  0  0  0  0  0  0  0  0  0  0  0
   -6.9416    1.8680   -3.0614 h   0  0  0  0  0  0  0  0  0  0  0  0
   -4.6489    2.2791   -3.7944 h   0  0  0  0  0  0  0  0  0  0  0  0
   -2.7185    1.4450   -2.4938 h   0  0  0  0  0  0  0  0  0  0  0  0
   -1.6891    0.8088    1.9336 h   0  0  0  0  0  0  0  0  0  0  0  0
    0.7680    0.9399    1.9505 h   0  0  0  0  0  0  0  0  0  0  0  0
  1  2  1  0  0  0  0
  2  3  4  0  0  0  0
  3  4  4  0  0  0  0
  4  5  4  0  0  0  0
  5  6  1  0  0  0  0
  6  7  1  0  0  0  0
  7  8  1  0  0  0  0
  8  9  4  0  0  0  0
  9 10  4  0  0  0  0
 10 11  4  0  0  0  0
 11 12  4  0  0  0  0
  8 13  4  0  0  0  0
 12 13  4  0  0  0  0
  7 14  2  0  0  0  0
  6 15  1  0  0  0  0
 14 16  4  0  0  0  0
 15 16  4  0  0  0  0
 16 17  4  0  0  0  0
 17 18  4  0  0  0  0
 18 19  4  0  0  0  0
 15 20  4  0  0  0  0
 19 20  4  0  0  0  0
  5 21  4  0  0  0  0
  2 22  4  0  0  0  0
 21 22  4  0  0  0  0
  1 23  1  0  0  0  0
  1 24  1  0  0  0  0
  1 25  1  0  0  0  0
  3 26  1  0  0  0  0
  4 27  1  0  0  0  0
  9 28  1  0  0  0  0
 10 29  1  0  0  0  0
 11 30  1  0  0  0  0
 12 31  1  0  0  0  0
 13 32  1  0  0  0  0
 17 33  1  0  0  0  0
 18 34  1  0  0  0  0
 19 35  1  0  0  0  0
 20 36  1  0  0  0  0
 21 37  1  0  0  0  0
 22 38  1  0  0  0  0
M  END
