21

C          3.03990        0.41950        0.00050
C          1.58160        0.06560       -0.00140
C          1.16990       -1.27240        0.00010
C         -0.18880       -1.59070        0.00050
C         -1.16420       -0.57880       -0.00140
C         -2.61860       -0.97030        0.00090
C         -0.75330        0.77910       -0.00500
C         -1.72580        1.93170       -0.00920
C          0.61880        1.08290       -0.00470
H          3.68040       -0.48810        0.00200
H          3.27710        1.01730        0.90590
H          3.28060        1.01770       -0.90330
H          1.89940       -2.07280        0.00220
H         -0.47830       -2.63440        0.00250
H         -2.74870       -2.07370        0.00340
H         -3.11820       -0.57080       -0.90650
H         -3.11500       -0.56730        0.90860
H         -2.78610        1.61350       -0.00790
H         -1.55950        2.55180       -0.91530
H         -1.55930        2.55970        0.89130
H          0.93940        2.11870       -0.00650
