
  xtb     02032211353D
 xtb: 6.4.1 (23d549d)
 24 24  0     0  0            999 V2000
    4.2843    0.6068    0.3960 C   0  0  0  0  0  0  0  0  0  0  0  0
    3.2948   -0.2750    0.4860 C   0  0  0  0  0  0  0  0  0  0  0  0
    1.8816   -0.0619    0.2028 C   0  0  0  0  0  0  0  0  0  0  0  0
    0.9944   -1.1193    0.4090 C   0  0  0  0  0  0  0  0  0  0  0  0
   -0.3725   -1.0467    0.1628 C   0  0  0  0  0  0  0  0  0  0  0  0
   -1.1579   -2.2722    0.3386 C   0  0  0  0  0  0  0  0  0  0  0  0
   -2.1215   -2.6862   -0.4714 C   0  0  0  0  0  0  0  0  0  0  0  0
   -0.8950    0.1809   -0.2582 C   0  0  0  0  0  0  0  0  0  0  0  0
   -2.6353    0.4855   -0.5001 S   0  0  0  0  0  0  0  0  0  0  0  0
   -3.2479    0.1400    1.1776 C   0  0  0  0  0  0  0  0  0  0  0  0
   -0.0432    1.2515   -0.4809 C   0  0  0  0  0  0  0  0  0  0  0  0
    1.3141    1.1248   -0.2691 C   0  0  0  0  0  0  0  0  0  0  0  0
    2.0745    2.2113   -0.5169 F   0  0  0  0  0  0  0  0  0  0  0  0
    5.2946    0.3215    0.6367 H   0  0  0  0  0  0  0  0  0  0  0  0
    4.1431    1.6264    0.0876 H   0  0  0  0  0  0  0  0  0  0  0  0
    3.5225   -1.2842    0.8084 H   0  0  0  0  0  0  0  0  0  0  0  0
    1.3970   -2.0610    0.7561 H   0  0  0  0  0  0  0  0  0  0  0  0
   -0.8441   -2.8960    1.1677 H   0  0  0  0  0  0  0  0  0  0  0  0
   -2.4354   -2.1127   -1.3266 H   0  0  0  0  0  0  0  0  0  0  0  0
   -2.6295   -3.6213   -0.3065 H   0  0  0  0  0  0  0  0  0  0  0  0
   -4.3098    0.3619    1.1633 H   0  0  0  0  0  0  0  0  0  0  0  0
   -2.7381    0.7901    1.8822 H   0  0  0  0  0  0  0  0  0  0  0  0
   -3.0837   -0.9045    1.4236 H   0  0  0  0  0  0  0  0  0  0  0  0
   -0.4409    2.1959   -0.8179 H   0  0  0  0  0  0  0  0  0  0  0  0
  1  2  2  0  0  0  0
  2  3  1  0  0  0  0
  3  4  4  0  0  0  0
  4  5  4  0  0  0  0
  5  6  1  0  0  0  0
  6  7  2  0  0  0  0
  5  8  4  0  0  0  0
  8  9  1  0  0  0  0
  9 10  1  0  0  0  0
  8 11  4  0  0  0  0
  3 12  4  0  0  0  0
 11 12  4  0  0  0  0
 12 13  1  0  0  0  0
  1 14  1  0  0  0  0
  1 15  1  0  0  0  0
  2 16  1  0  0  0  0
  4 17  1  0  0  0  0
  6 18  1  0  0  0  0
  7 19  1  0  0  0  0
  7 20  1  0  0  0  0
 10 21  1  0  0  0  0
 10 22  1  0  0  0  0
 10 23  1  0  0  0  0
 11 24  1  0  0  0  0
M  END
