21

C          1.35170        0.40271        0.66205
C          2.43240        0.08910       -0.06600
C          3.11880       -1.19910        0.12800
C          4.15530       -1.25240        1.06530
C          4.83100       -2.44480        1.29490
C          4.46440       -3.59810        0.60730
C          3.42560       -3.58390       -0.33790
C          3.13710       -4.88960       -0.99460
C          3.68685       -5.35470       -2.12740
C          2.76260       -2.35640       -0.60730
C          1.78000       -2.24420       -1.66140
N          0.99160       -2.14560       -2.50420
H          0.85206        1.35486        0.52378
H          0.94661       -0.28203        1.40511
H          2.82487        0.78393       -0.79956
H          4.44480       -0.36290        1.61290
H          5.63690       -2.48010        2.01590
H          4.98900       -4.52020        0.82560
H          2.36404       -5.49179       -0.53090
H          4.41274       -4.80371       -2.71264
H          3.35641       -6.31397       -2.51972
21

C          2.86867        0.96317       -0.98359
C          2.43240        0.08910       -0.06600
C          3.11880       -1.19910        0.12800
C          4.15530       -1.25240        1.06530
C          4.83100       -2.44480        1.29490
C          4.46440       -3.59810        0.60730
C          3.42560       -3.58390       -0.33790
C          3.13710       -4.88960       -0.99460
C          2.26764       -5.82206       -0.57467
C          2.76260       -2.35640       -0.60730
C          1.78000       -2.24420       -1.66140
N          0.99160       -2.14560       -2.50420
H          2.35755        1.90785       -1.13090
H          3.74052        0.75395       -1.60101
H          1.56050        0.31172        0.53830
H          4.44480       -0.36290        1.61290
H          5.63690       -2.48010        2.01590
H          4.98900       -4.52020        0.82560
H          3.73515       -5.12203       -1.86843
H          1.67405       -5.72698        0.32623
H          2.18163       -6.75276       -1.13120
21

C          1.35170        0.40271        0.66205
C          2.43240        0.08910       -0.06600
C          3.11880       -1.19910        0.12800
C          4.15530       -1.25240        1.06530
C          4.83100       -2.44480        1.29490
C          4.46440       -3.59810        0.60730
C          3.42560       -3.58390       -0.33790
C          3.13710       -4.88960       -0.99460
C          2.66458       -5.07347       -2.23745
C          2.76260       -2.35640       -0.60730
C          1.78000       -2.24420       -1.66140
N          0.99160       -2.14560       -2.50420
H          0.85206        1.35486        0.52378
H          0.94661       -0.28203        1.40511
H          2.82487        0.78393       -0.79956
H          4.44480       -0.36290        1.61290
H          5.63690       -2.48010        2.01590
H          4.98900       -4.52020        0.82560
H          3.27518       -5.77022       -0.37759
H          2.42003       -4.26278       -2.91272
H          2.46164       -6.08546       -2.58099
21

C          1.35170        0.40271        0.66205
C          2.43240        0.08910       -0.06600
C          3.11880       -1.19910        0.12800
C          4.15530       -1.25240        1.06530
C          4.83100       -2.44480        1.29490
C          4.46440       -3.59810        0.60730
C          3.42560       -3.58390       -0.33790
C          3.13710       -4.88960       -0.99460
C          2.26764       -5.82206       -0.57467
C          2.76260       -2.35640       -0.60730
C          1.78000       -2.24420       -1.66140
N          0.99160       -2.14560       -2.50420
H          0.85206        1.35486        0.52378
H          0.94661       -0.28203        1.40511
H          2.82487        0.78393       -0.79956
H          4.44480       -0.36290        1.61290
H          5.63690       -2.48010        2.01590
H          4.98900       -4.52020        0.82560
H          3.73515       -5.12203       -1.86843
H          1.67405       -5.72698        0.32623
H          2.18163       -6.75276       -1.13120
21

C          1.35170        0.40271        0.66205
C          2.43240        0.08910       -0.06600
C          3.11880       -1.19910        0.12800
C          4.15530       -1.25240        1.06530
C          4.83100       -2.44480        1.29490
C          4.46440       -3.59810        0.60730
C          3.42560       -3.58390       -0.33790
C          3.13710       -4.88960       -0.99460
C          1.94740       -5.30964       -1.45281
C          2.76260       -2.35640       -0.60730
C          1.78000       -2.24420       -1.66140
N          0.99160       -2.14560       -2.50420
H          0.85206        1.35486        0.52378
H          0.94661       -0.28203        1.40511
H          2.82487        0.78393       -0.79956
H          4.44480       -0.36290        1.61290
H          5.63690       -2.48010        2.01590
H          4.98900       -4.52020        0.82560
H          3.96805       -5.58337       -1.05348
H          1.03607       -4.72934       -1.37708
H          1.86799       -6.30719       -1.87931
21

C          2.86867        0.96317       -0.98359
C          2.43240        0.08910       -0.06600
C          3.11880       -1.19910        0.12800
C          4.15530       -1.25240        1.06530
C          4.83100       -2.44480        1.29490
C          4.46440       -3.59810        0.60730
C          3.42560       -3.58390       -0.33790
C          3.13710       -4.88960       -0.99460
C          3.68685       -5.35470       -2.12740
C          2.76260       -2.35640       -0.60730
C          1.78000       -2.24420       -1.66140
N          0.99160       -2.14560       -2.50420
H          2.35755        1.90785       -1.13090
H          3.74052        0.75395       -1.60101
H          1.56050        0.31172        0.53830
H          4.44480       -0.36290        1.61290
H          5.63690       -2.48010        2.01590
H          4.98900       -4.52020        0.82560
H          2.36404       -5.49179       -0.53090
H          4.41274       -4.80371       -2.71264
H          3.35641       -6.31397       -2.51972
21

C          1.90836        0.41031       -1.25702
C          2.43240        0.08910       -0.06600
C          3.11880       -1.19910        0.12800
C          4.15530       -1.25240        1.06530
C          4.83100       -2.44480        1.29490
C          4.46440       -3.59810        0.60730
C          3.42560       -3.58390       -0.33790
C          3.13710       -4.88960       -0.99460
C          2.26764       -5.82206       -0.57467
C          2.76260       -2.35640       -0.60730
C          1.78000       -2.24420       -1.66140
N          0.99160       -2.14560       -2.50420
H          1.39627        1.35568       -1.39629
H          1.98134       -0.26028       -2.11147
H          2.34797        0.76703        0.77555
H          4.44480       -0.36290        1.61290
H          5.63690       -2.48010        2.01590
H          4.98900       -4.52020        0.82560
H          3.73515       -5.12203       -1.86843
H          1.67405       -5.72698        0.32623
H          2.18163       -6.75276       -1.13120
21

C          1.90836        0.41031       -1.25702
C          2.43240        0.08910       -0.06600
C          3.11880       -1.19910        0.12800
C          4.15530       -1.25240        1.06530
C          4.83100       -2.44480        1.29490
C          4.46440       -3.59810        0.60730
C          3.42560       -3.58390       -0.33790
C          3.13710       -4.88960       -0.99460
C          3.68685       -5.35470       -2.12740
C          2.76260       -2.35640       -0.60730
C          1.78000       -2.24420       -1.66140
N          0.99160       -2.14560       -2.50420
H          1.39627        1.35568       -1.39629
H          1.98134       -0.26028       -2.11147
H          2.34797        0.76703        0.77555
H          4.44480       -0.36290        1.61290
H          5.63690       -2.48010        2.01590
H          4.98900       -4.52020        0.82560
H          2.36404       -5.49179       -0.53090
H          4.41274       -4.80371       -2.71264
H          3.35641       -6.31397       -2.51972
21

C          1.90836        0.41031       -1.25702
C          2.43240        0.08910       -0.06600
C          3.11880       -1.19910        0.12800
C          4.15530       -1.25240        1.06530
C          4.83100       -2.44480        1.29490
C          4.46440       -3.59810        0.60730
C          3.42560       -3.58390       -0.33790
C          3.13710       -4.88960       -0.99460
C          1.94740       -5.30964       -1.45281
C          2.76260       -2.35640       -0.60730
C          1.78000       -2.24420       -1.66140
N          0.99160       -2.14560       -2.50420
H          1.39627        1.35568       -1.39629
H          1.98134       -0.26028       -2.11147
H          2.34797        0.76703        0.77555
H          4.44480       -0.36290        1.61290
H          5.63690       -2.48010        2.01590
H          4.98900       -4.52020        0.82560
H          3.96805       -5.58337       -1.05348
H          1.03607       -4.72934       -1.37708
H          1.86799       -6.30719       -1.87931
21

C          2.86867        0.96317       -0.98359
C          2.43240        0.08910       -0.06600
C          3.11880       -1.19910        0.12800
C          4.15530       -1.25240        1.06530
C          4.83100       -2.44480        1.29490
C          4.46440       -3.59810        0.60730
C          3.42560       -3.58390       -0.33790
C          3.13710       -4.88960       -0.99460
C          1.94740       -5.30964       -1.45281
C          2.76260       -2.35640       -0.60730
C          1.78000       -2.24420       -1.66140
N          0.99160       -2.14560       -2.50420
H          2.35755        1.90785       -1.13090
H          3.74052        0.75395       -1.60101
H          1.56050        0.31172        0.53830
H          4.44480       -0.36290        1.61290
H          5.63690       -2.48010        2.01590
H          4.98900       -4.52020        0.82560
H          3.96805       -5.58337       -1.05348
H          1.03607       -4.72934       -1.37708
H          1.86799       -6.30719       -1.87931
