
  xtb     02032211353D
 xtb: 6.4.1 (23d549d)
 18 18  0     0  0            999 V2000
   -3.7223    0.5339    0.0011 C   0  0  0  0  0  0  0  0  0  0  0  0
   -2.7754   -0.3971   -0.0014 C   0  0  0  0  0  0  0  0  0  0  0  0
   -1.3409   -0.1598   -0.0002 C   0  0  0  0  0  0  0  0  0  0  0  0
   -0.7344    1.1033    0.0007 C   0  0  0  0  0  0  0  0  0  0  0  0
    0.5719    1.2557    0.0005 N   0  0  0  0  0  0  0  0  0  0  0  0
    1.3409    0.1598   -0.0000 C   0  0  0  0  0  0  0  0  0  0  0  0
    2.7754    0.3971   -0.0009 C   0  0  0  0  0  0  0  0  0  0  0  0
    3.7222   -0.5340    0.0006 C   0  0  0  0  0  0  0  0  0  0  0  0
    0.7344   -1.1033    0.0000 C   0  0  0  0  0  0  0  0  0  0  0  0
   -0.5719   -1.2556   -0.0004 N   0  0  0  0  0  0  0  0  0  0  0  0
   -4.7653    0.2678   -0.0003 H   0  0  0  0  0  0  0  0  0  0  0  0
   -3.5032    1.5882    0.0047 H   0  0  0  0  0  0  0  0  0  0  0  0
   -3.0356   -1.4472   -0.0046 H   0  0  0  0  0  0  0  0  0  0  0  0
   -1.3120    2.0174    0.0013 H   0  0  0  0  0  0  0  0  0  0  0  0
    3.0357    1.4471   -0.0030 H   0  0  0  0  0  0  0  0  0  0  0  0
    3.5032   -1.5882    0.0029 H   0  0  0  0  0  0  0  0  0  0  0  0
    4.7653   -0.2679   -0.0003 H   0  0  0  0  0  0  0  0  0  0  0  0
    1.3120   -2.0174    0.0002 H   0  0  0  0  0  0  0  0  0  0  0  0
  1  2  2  0  0  0  0
  2  3  1  0  0  0  0
  3  4  4  0  0  0  0
  4  5  4  0  0  0  0
  5  6  4  0  0  0  0
  6  7  1  0  0  0  0
  7  8  2  0  0  0  0
  6  9  4  0  0  0  0
  3 10  4  0  0  0  0
  9 10  4  0  0  0  0
  1 11  1  0  0  0  0
  1 12  1  0  0  0  0
  2 13  1  0  0  0  0
  4 14  1  0  0  0  0
  7 15  1  0  0  0  0
  8 16  1  0  0  0  0
  8 17  1  0  0  0  0
  9 18  1  0  0  0  0
M  END
