25

C          0.70232        0.16030       -0.03895
C          2.01220       -0.05050       -0.24200
C          2.88560        0.76390       -1.15790
C          3.98800        0.13820       -1.79100
C          4.77520        0.87630       -2.64970
N          5.85080        0.44550       -3.33100
C          6.26470        1.54370       -4.00280
N          5.48890        2.62210       -3.76200
C          4.54370        2.18900       -2.90390
C          3.48890        2.90300       -2.31250
C          3.37660        4.35890       -2.65930
C          3.94538        5.38239       -2.00791
C          2.61960        2.16340       -1.42530
N          1.45120        2.78080       -0.88240
H          0.15934       -0.48113        0.64827
H          0.14326        0.95701       -0.50892
H          2.42006       -0.87248        0.32426
H          4.24970       -0.89640       -1.63440
H          7.12460        1.55550       -4.65980
H          5.62290        3.57480       -4.16510
H          2.83748        4.62903       -3.56029
H          4.58447        5.26275       -1.14496
H          3.80634        6.39206       -2.38237
H          1.08170        3.65890       -1.25650
H          0.81220        2.31040       -0.23540
25

C          0.91997       -0.73077       -0.62372
C          2.01220       -0.05050       -0.24200
C          2.88560        0.76390       -1.15790
C          3.98800        0.13820       -1.79100
C          4.77520        0.87630       -2.64970
N          5.85080        0.44550       -3.33100
C          6.26470        1.54370       -4.00280
N          5.48890        2.62210       -3.76200
C          4.54370        2.18900       -2.90390
C          3.48890        2.90300       -2.31250
C          3.37660        4.35890       -2.65930
C          3.94538        5.38239       -2.00791
C          2.61960        2.16340       -1.42530
N          1.45120        2.78080       -0.88240
H          0.35175       -1.28564        0.11640
H          0.54780       -0.74699       -1.63832
H          2.23013       -0.12063        0.81168
H          4.24970       -0.89640       -1.63440
H          7.12460        1.55550       -4.65980
H          5.62290        3.57480       -4.16510
H          2.83748        4.62903       -3.56029
H          4.58447        5.26275       -1.14496
H          3.80634        6.39206       -2.38237
H          1.08170        3.65890       -1.25650
H          0.81220        2.31040       -0.23540
25

C          1.35087        0.43239        0.82145
C          2.01220       -0.05050       -0.24200
C          2.88560        0.76390       -1.15790
C          3.98800        0.13820       -1.79100
C          4.77520        0.87630       -2.64970
N          5.85080        0.44550       -3.33100
C          6.26470        1.54370       -4.00280
N          5.48890        2.62210       -3.76200
C          4.54370        2.18900       -2.90390
C          3.48890        2.90300       -2.31250
C          3.37660        4.35890       -2.65930
C          2.67749        4.88808       -3.67249
C          2.61960        2.16340       -1.42530
N          1.45120        2.78080       -0.88240
H          0.74885       -0.23968        1.42511
H          1.39479        1.46533        1.13652
H          1.87892       -1.10852       -0.40165
H          4.24970       -0.89640       -1.63440
H          7.12460        1.55550       -4.65980
H          5.62290        3.57480       -4.16510
H          3.84928        5.07862       -2.00052
H          2.08284        4.30396       -4.35997
H          2.65704        5.96663       -3.79621
H          1.08170        3.65890       -1.25650
H          0.81220        2.31040       -0.23540
25

C          1.35087        0.43239        0.82145
C          2.01220       -0.05050       -0.24200
C          2.88560        0.76390       -1.15790
C          3.98800        0.13820       -1.79100
C          4.77520        0.87630       -2.64970
N          5.85080        0.44550       -3.33100
C          6.26470        1.54370       -4.00280
N          5.48890        2.62210       -3.76200
C          4.54370        2.18900       -2.90390
C          3.48890        2.90300       -2.31250
C          3.37660        4.35890       -2.65930
C          3.94538        5.38239       -2.00791
C          2.61960        2.16340       -1.42530
N          1.45120        2.78080       -0.88240
H          0.74885       -0.23968        1.42511
H          1.39479        1.46533        1.13652
H          1.87892       -1.10852       -0.40165
H          4.24970       -0.89640       -1.63440
H          7.12460        1.55550       -4.65980
H          5.62290        3.57480       -4.16510
H          2.83748        4.62903       -3.56029
H          4.58447        5.26275       -1.14496
H          3.80634        6.39206       -2.38237
H          1.08170        3.65890       -1.25650
H          0.81220        2.31040       -0.23540
25

C          2.20338       -0.19234        1.07890
C          2.01220       -0.05050       -0.24200
C          2.88560        0.76390       -1.15790
C          3.98800        0.13820       -1.79100
C          4.77520        0.87630       -2.64970
N          5.85080        0.44550       -3.33100
C          6.26470        1.54370       -4.00280
N          5.48890        2.62210       -3.76200
C          4.54370        2.18900       -2.90390
C          3.48890        2.90300       -2.31250
C          3.37660        4.35890       -2.65930
C          2.67749        4.88808       -3.67249
C          2.61960        2.16340       -1.42530
N          1.45120        2.78080       -0.88240
H          1.51832       -0.80784        1.65369
H          3.02442        0.25892        1.61782
H          1.15927       -0.58772       -0.62483
H          4.24970       -0.89640       -1.63440
H          7.12460        1.55550       -4.65980
H          5.62290        3.57480       -4.16510
H          3.84928        5.07862       -2.00052
H          2.08284        4.30396       -4.35997
H          2.65704        5.96663       -3.79621
H          1.08170        3.65890       -1.25650
H          0.81220        2.31040       -0.23540
25

C          0.70232        0.16030       -0.03895
C          2.01220       -0.05050       -0.24200
C          2.88560        0.76390       -1.15790
C          3.98800        0.13820       -1.79100
C          4.77520        0.87630       -2.64970
N          5.85080        0.44550       -3.33100
C          6.26470        1.54370       -4.00280
N          5.48890        2.62210       -3.76200
C          4.54370        2.18900       -2.90390
C          3.48890        2.90300       -2.31250
C          3.37660        4.35890       -2.65930
C          2.67749        4.88808       -3.67249
C          2.61960        2.16340       -1.42530
N          1.45120        2.78080       -0.88240
H          0.15934       -0.48113        0.64827
H          0.14326        0.95701       -0.50892
H          2.42006       -0.87248        0.32426
H          4.24970       -0.89640       -1.63440
H          7.12460        1.55550       -4.65980
H          5.62290        3.57480       -4.16510
H          3.84928        5.07862       -2.00052
H          2.08284        4.30396       -4.35997
H          2.65704        5.96663       -3.79621
H          1.08170        3.65890       -1.25650
H          0.81220        2.31040       -0.23540
25

C          2.20338       -0.19234        1.07890
C          2.01220       -0.05050       -0.24200
C          2.88560        0.76390       -1.15790
C          3.98800        0.13820       -1.79100
C          4.77520        0.87630       -2.64970
N          5.85080        0.44550       -3.33100
C          6.26470        1.54370       -4.00280
N          5.48890        2.62210       -3.76200
C          4.54370        2.18900       -2.90390
C          3.48890        2.90300       -2.31250
C          3.37660        4.35890       -2.65930
C          3.94538        5.38239       -2.00791
C          2.61960        2.16340       -1.42530
N          1.45120        2.78080       -0.88240
H          1.51832       -0.80784        1.65369
H          3.02442        0.25892        1.61782
H          1.15927       -0.58772       -0.62483
H          4.24970       -0.89640       -1.63440
H          7.12460        1.55550       -4.65980
H          5.62290        3.57480       -4.16510
H          2.83748        4.62903       -3.56029
H          4.58447        5.26275       -1.14496
H          3.80634        6.39206       -2.38237
H          1.08170        3.65890       -1.25650
H          0.81220        2.31040       -0.23540
25

C          0.91997       -0.73077       -0.62372
C          2.01220       -0.05050       -0.24200
C          2.88560        0.76390       -1.15790
C          3.98800        0.13820       -1.79100
C          4.77520        0.87630       -2.64970
N          5.85080        0.44550       -3.33100
C          6.26470        1.54370       -4.00280
N          5.48890        2.62210       -3.76200
C          4.54370        2.18900       -2.90390
C          3.48890        2.90300       -2.31250
C          3.37660        4.35890       -2.65930
C          2.67749        4.88808       -3.67249
C          2.61960        2.16340       -1.42530
N          1.45120        2.78080       -0.88240
H          0.35175       -1.28564        0.11640
H          0.54780       -0.74699       -1.63832
H          2.23013       -0.12063        0.81168
H          4.24970       -0.89640       -1.63440
H          7.12460        1.55550       -4.65980
H          5.62290        3.57480       -4.16510
H          3.84928        5.07862       -2.00052
H          2.08284        4.30396       -4.35997
H          2.65704        5.96663       -3.79621
H          1.08170        3.65890       -1.25650
H          0.81220        2.31040       -0.23540
25

C          0.70232        0.16030       -0.03895
C          2.01220       -0.05050       -0.24200
C          2.88560        0.76390       -1.15790
C          3.98800        0.13820       -1.79100
C          4.77520        0.87630       -2.64970
N          5.85080        0.44550       -3.33100
C          6.26470        1.54370       -4.00280
N          5.48890        2.62210       -3.76200
C          4.54370        2.18900       -2.90390
C          3.48890        2.90300       -2.31250
C          3.37660        4.35890       -2.65930
C          4.38167        5.18378       -2.98293
C          2.61960        2.16340       -1.42530
N          1.45120        2.78080       -0.88240
H          0.15934       -0.48113        0.64827
H          0.14326        0.95701       -0.50892
H          2.42006       -0.87248        0.32426
H          4.24970       -0.89640       -1.63440
H          7.12460        1.55550       -4.65980
H          5.62290        3.57480       -4.16510
H          2.38549        4.79387       -2.72193
H          5.41420        4.87280       -3.05069
H          4.15919        6.21464       -3.24144
H          1.08170        3.65890       -1.25650
H          0.81220        2.31040       -0.23540
25

C          0.70232        0.16030       -0.03895
C          2.01220       -0.05050       -0.24200
C          2.88560        0.76390       -1.15790
C          3.98800        0.13820       -1.79100
C          4.77520        0.87630       -2.64970
N          5.85080        0.44550       -3.33100
C          6.26470        1.54370       -4.00280
N          5.48890        2.62210       -3.76200
C          4.54370        2.18900       -2.90390
C          3.48890        2.90300       -2.31250
C          3.37660        4.35890       -2.65930
C          3.75449        4.93927       -3.80635
C          2.61960        2.16340       -1.42530
N          1.45120        2.78080       -0.88240
H          0.15934       -0.48113        0.64827
H          0.14326        0.95701       -0.50892
H          2.42006       -0.87248        0.32426
H          4.24970       -0.89640       -1.63440
H          7.12460        1.55550       -4.65980
H          5.62290        3.57480       -4.16510
H          2.88600        5.01626       -1.95036
H          4.17674        4.39852       -4.64105
H          3.59067        6.00420       -3.94082
H          1.08170        3.65890       -1.25650
H          0.81220        2.31040       -0.23540
