
  xtb     02032211353D
 xtb: 6.4.1 (23d549d)
 22 23  0     0  0            999 V2000
    4.2949   -0.8332    0.0662 C   0  0  0  0  0  0  0  0  0  0  0  0
    3.2979    0.0430    0.1029 C   0  0  0  0  0  0  0  0  0  0  0  0
    1.8751   -0.2589    0.0221 C   0  0  0  0  0  0  0  0  0  0  0  0
    1.3631   -1.5591   -0.0552 C   0  0  0  0  0  0  0  0  0  0  0  0
    0.0078   -1.7885   -0.1383 C   0  0  0  0  0  0  0  0  0  0  0  0
   -0.9230   -0.7456   -0.1343 C   0  0  0  0  0  0  0  0  0  0  0  0
   -2.3460   -1.0337   -0.2760 C   0  0  0  0  0  0  0  0  0  0  0  0
   -2.9438   -2.0813    0.2764 C   0  0  0  0  0  0  0  0  0  0  0  0
   -0.4052    0.5554   -0.0450 C   0  0  0  0  0  0  0  0  0  0  0  0
   -1.2661    1.7061    0.0149 N   0  0  0  0  0  0  0  0  0  0  0  0
   -2.4133    1.5517    0.3804 O   0  0  0  0  0  0  0  0  0  0  0  0
   -0.7859    2.7779   -0.2946 O   0  0  0  0  0  0  0  0  0  0  0  0
    0.9612    0.7896    0.0245 C   0  0  0  0  0  0  0  0  0  0  0  0
    5.3200   -0.5123    0.1307 H   0  0  0  0  0  0  0  0  0  0  0  0
    4.1403   -1.8940   -0.0315 H   0  0  0  0  0  0  0  0  0  0  0  0
    3.5266    1.0970    0.1960 H   0  0  0  0  0  0  0  0  0  0  0  0
    2.0375   -2.4008   -0.0557 H   0  0  0  0  0  0  0  0  0  0  0  0
   -0.3569   -2.8003   -0.2284 H   0  0  0  0  0  0  0  0  0  0  0  0
   -2.9273   -0.3326   -0.8586 H   0  0  0  0  0  0  0  0  0  0  0  0
   -2.4180   -2.7712    0.9158 H   0  0  0  0  0  0  0  0  0  0  0  0
   -3.9945   -2.2639    0.1367 H   0  0  0  0  0  0  0  0  0  0  0  0
    1.3004    1.8132    0.0924 H   0  0  0  0  0  0  0  0  0  0  0  0
  1  2  2  0  0  0  0
  2  3  1  0  0  0  0
  3  4  4  0  0  0  0
  4  5  4  0  0  0  0
  5  6  4  0  0  0  0
  6  7  1  0  0  0  0
  7  8  2  0  0  0  0
  6  9  4  0  0  0  0
  9 10  1  0  0  0  0
 10 11  4  0  0  0  0
 10 12  4  0  0  0  0
 11 12  1  0  0  0  0
  3 13  4  0  0  0  0
  9 13  4  0  0  0  0
  1 14  1  0  0  0  0
  1 15  1  0  0  0  0
  2 16  1  0  0  0  0
  4 17  1  0  0  0  0
  5 18  1  0  0  0  0
  7 19  1  0  0  0  0
  8 20  1  0  0  0  0
  8 21  1  0  0  0  0
 13 22  1  0  0  0  0
M  END
