
  xtb     02032211343D
 xtb: 6.4.1 (23d549d)
 14 13  0     0  0            999 V2000
   -3.4880    0.9404   -0.0228 C   0  0  0  0  0  0  0  0  0  0  0  0
   -3.1325   -0.3425    0.0164 C   0  0  0  0  0  0  0  0  0  0  0  0
   -1.7828   -0.8590    0.0115 C   0  0  0  0  0  0  0  0  0  0  0  0
   -0.6543   -0.1299    0.0062 C   0  0  0  0  0  0  0  0  0  0  0  0
    0.6543   -0.7230    0.0018 C   0  0  0  0  0  0  0  0  0  0  0  0
    1.7805   -0.0182   -0.0015 C   0  0  0  0  0  0  0  0  0  0  0  0
    1.8667    1.3081   -0.0014 F   0  0  0  0  0  0  0  0  0  0  0  0
    3.0017   -0.5441   -0.0057 F   0  0  0  0  0  0  0  0  0  0  0  0
   -4.5231    1.2344   -0.0154 H   0  0  0  0  0  0  0  0  0  0  0  0
   -2.7685    1.7396   -0.0655 H   0  0  0  0  0  0  0  0  0  0  0  0
   -3.9085   -1.0966    0.0537 H   0  0  0  0  0  0  0  0  0  0  0  0
   -1.6962   -1.9383    0.0151 H   0  0  0  0  0  0  0  0  0  0  0  0
   -0.6905    0.9493    0.0067 H   0  0  0  0  0  0  0  0  0  0  0  0
    0.7427   -1.7985    0.0012 H   0  0  0  0  0  0  0  0  0  0  0  0
  1  2  2  0  0  0  0
  2  3  1  0  0  0  0
  3  4  2  0  0  0  0
  4  5  1  0  0  0  0
  5  6  2  0  0  0  0
  6  7  1  0  0  0  0
  6  8  1  0  0  0  0
  1  9  1  0  0  0  0
  1 10  1  0  0  0  0
  2 11  1  0  0  0  0
  3 12  1  0  0  0  0
  4 13  1  0  0  0  0
  5 14  1  0  0  0  0
M  END
