
  xtb     02032211353D
 xtb: 6.4.1 (23d549d)
 20 20  0     0  0            999 V2000
   -2.7183    1.8317    0.1570 C   0  0  0  0  0  0  0  0  0  0  0  0
   -2.4995    0.5477   -0.0972 C   0  0  0  0  0  0  0  0  0  0  0  0
   -1.2133   -0.1412   -0.0605 C   0  0  0  0  0  0  0  0  0  0  0  0
   -1.1960   -1.5370   -0.1035 C   0  0  0  0  0  0  0  0  0  0  0  0
   -0.0000   -2.2273   -0.0529 C   0  0  0  0  0  0  0  0  0  0  0  0
    1.1960   -1.5401    0.0305 C   0  0  0  0  0  0  0  0  0  0  0  0
    1.2133   -0.1439    0.0538 C   0  0  0  0  0  0  0  0  0  0  0  0
    2.4995    0.5424    0.1231 C   0  0  0  0  0  0  0  0  0  0  0  0
    2.7183    1.8370   -0.0701 C   0  0  0  0  0  0  0  0  0  0  0  0
    0.0000    0.5368    0.0128 C   0  0  0  0  0  0  0  0  0  0  0  0
   -3.7088    2.2511    0.1109 H   0  0  0  0  0  0  0  0  0  0  0  0
   -1.9316    2.5146    0.4288 H   0  0  0  0  0  0  0  0  0  0  0  0
   -3.3418   -0.0882   -0.3430 H   0  0  0  0  0  0  0  0  0  0  0  0
   -2.1290   -2.0789   -0.1665 H   0  0  0  0  0  0  0  0  0  0  0  0
   -0.0000   -3.3076   -0.0785 H   0  0  0  0  0  0  0  0  0  0  0  0
    2.1290   -2.0845    0.0677 H   0  0  0  0  0  0  0  0  0  0  0  0
    3.3418   -0.1043    0.3387 H   0  0  0  0  0  0  0  0  0  0  0  0
    1.9316    2.5320   -0.3094 H   0  0  0  0  0  0  0  0  0  0  0  0
    3.7088    2.2538   -0.0041 H   0  0  0  0  0  0  0  0  0  0  0  0
    0.0000    1.6144    0.0384 H   0  0  0  0  0  0  0  0  0  0  0  0
  1  2  2  0  0  0  0
  2  3  1  0  0  0  0
  3  4  4  0  0  0  0
  4  5  4  0  0  0  0
  5  6  4  0  0  0  0
  6  7  4  0  0  0  0
  7  8  1  0  0  0  0
  8  9  2  0  0  0  0
  3 10  4  0  0  0  0
  7 10  4  0  0  0  0
  1 11  1  0  0  0  0
  1 12  1  0  0  0  0
  2 13  1  0  0  0  0
  4 14  1  0  0  0  0
  5 15  1  0  0  0  0
  6 16  1  0  0  0  0
  8 17  1  0  0  0  0
  9 18  1  0  0  0  0
  9 19  1  0  0  0  0
 10 20  1  0  0  0  0
M  END
