 xtb: 6.5.0 (unknown)
          08112218553D

 20  0  0     0  0            999 V2000
    1.9545   -2.1444    0.9839 C   0  0  0  0  0  0  0  0  0  0  0  0
    1.0972   -2.1411   -0.0252 C   0  0  0  0  0  0  0  0  0  0  0  0
   -0.1021   -1.2996   -0.0970 C   0  0  0  0  0  0  0  0  0  0  0  0
   -1.3045   -1.9054   -0.4573 C   0  0  0  0  0  0  0  0  0  0  0  0
   -2.4997   -1.2144   -0.4457 C   0  0  0  0  0  0  0  0  0  0  0  0
   -2.5029    0.1170   -0.0693 C   0  0  0  0  0  0  0  0  0  0  0  0
   -3.6575    0.8014   -0.0383 F   0  0  0  0  0  0  0  0  0  0  0  0
   -1.3136    0.7469    0.2635 C   0  0  0  0  0  0  0  0  0  0  0  0
   -1.3222    2.0500    0.5971 F   0  0  0  0  0  0  0  0  0  0  0  0
   -0.0977    0.0630    0.2375 C   0  0  0  0  0  0  0  0  0  0  0  0
    1.1094    0.8395    0.5312 C   0  0  0  0  0  0  0  0  0  0  0  0
    2.2283    0.7974   -0.1708 C   0  0  0  0  0  0  0  0  0  0  0  0
    2.4732    0.0326   -1.2254 F   0  0  0  0  0  0  0  0  0  0  0  0
    3.2958    1.5402    0.0928 F   0  0  0  0  0  0  0  0  0  0  0  0
    2.7945   -2.8163    1.0058 H   0  0  0  0  0  0  0  0  0  0  0  0
    1.8444   -1.4860    1.8298 H   0  0  0  0  0  0  0  0  0  0  0  0
    1.2142   -2.8437   -0.8394 H   0  0  0  0  0  0  0  0  0  0  0  0
   -1.2993   -2.9492   -0.7312 H   0  0  0  0  0  0  0  0  0  0  0  0
   -3.4292   -1.6879   -0.7168 H   0  0  0  0  0  0  0  0  0  0  0  0
    1.0509    1.5717    1.3229 H   0  0  0  0  0  0  0  0  0  0  0  0
M  END
