
  xtb     02032211353D
 xtb: 6.4.1 (23d549d)
 16 16  0     0  0            999 V2000
    4.4281    0.0681   -0.0128 C   0  0  0  0  0  0  0  0  0  0  0  0
    3.4367   -0.8123    0.0271 C   0  0  0  0  0  0  0  0  0  0  0  0
    2.0373   -0.4384    0.0143 C   0  0  0  0  0  0  0  0  0  0  0  0
    0.9202   -1.3143    0.0593 C   0  0  0  0  0  0  0  0  0  0  0  0
   -0.1637   -0.4728    0.0235 C   0  0  0  0  0  0  0  0  0  0  0  0
   -1.5716   -0.7679    0.0425 C   0  0  0  0  0  0  0  0  0  0  0  0
   -2.5393    0.1409    0.0004 C   0  0  0  0  0  0  0  0  0  0  0  0
   -2.3953    1.4490   -0.0654 F   0  0  0  0  0  0  0  0  0  0  0  0
   -3.8287   -0.1692    0.0198 F   0  0  0  0  0  0  0  0  0  0  0  0
    0.2763    0.7987   -0.0378 O   0  0  0  0  0  0  0  0  0  0  0  0
    1.6211    0.8088   -0.0429 N   0  0  0  0  0  0  0  0  0  0  0  0
    5.4595   -0.2391   -0.0019 H   0  0  0  0  0  0  0  0  0  0  0  0
    4.2214    1.1232   -0.0574 H   0  0  0  0  0  0  0  0  0  0  0  0
    3.6261   -1.8763    0.0724 H   0  0  0  0  0  0  0  0  0  0  0  0
    0.9236   -2.3824    0.1096 H   0  0  0  0  0  0  0  0  0  0  0  0
   -1.8527   -1.8067    0.0950 H   0  0  0  0  0  0  0  0  0  0  0  0
  1  2  2  0  0  0  0
  2  3  1  0  0  0  0
  3  4  4  0  0  0  0
  4  5  2  0  0  0  0
  5  6  1  0  0  0  0
  6  7  2  0  0  0  0
  7  8  1  0  0  0  0
  7  9  1  0  0  0  0
  5 10  1  0  0  0  0
  3 11  2  0  0  0  0
 10 11  1  0  0  0  0
  1 12  1  0  0  0  0
  1 13  1  0  0  0  0
  2 14  1  0  0  0  0
  4 15  1  0  0  0  0
  6 16  1  0  0  0  0
M  END
