27

C          2.02879        0.09066        1.36664
O          2.26280       -0.12360        0.02380
C          2.93570       -1.17590       -0.51980
C          2.62110       -1.66500       -1.80000
C          3.31280       -2.74730       -2.34910
C          2.95360       -3.24570       -3.72450
C          4.33720       -3.36260       -1.61210
N          5.00480       -4.42180       -2.15050
C          6.00130       -5.06260       -1.49300
C          6.37590       -4.64240       -0.22260
C          5.72120       -3.56120        0.36650
C          4.67920       -2.88980       -0.31570
C          3.96880       -1.78030        0.23260
C          4.25000       -1.19070        1.60130
H          1.45795        1.03389        1.48826
H          2.99213        0.18807        1.91141
H          1.42990       -0.74245        1.79179
H          1.83250       -1.20360       -2.37930
H          2.12740       -2.65590       -4.17560
H          2.63130       -4.30650       -3.66630
H          3.83780       -3.16930       -4.39220
H          6.50270       -5.90040       -1.95880
H          7.17140       -5.15260        0.30550
H          6.05520       -3.28340        1.35050
H          5.05790       -1.67260        2.17240
H          3.33290       -1.25390        2.22410
H          4.53130       -0.12200        1.48840
27

C          2.49555        0.44446        1.25952
O          2.26280       -0.12360        0.02380
C          2.93570       -1.17590       -0.51980
C          2.62110       -1.66500       -1.80000
C          3.31280       -2.74730       -2.34910
C          2.95360       -3.24570       -3.72450
C          4.33720       -3.36260       -1.61210
N          5.00480       -4.42180       -2.15050
C          6.00130       -5.06260       -1.49300
C          6.37590       -4.64240       -0.22260
C          5.72120       -3.56120        0.36650
C          4.67920       -2.88980       -0.31570
C          3.96880       -1.78030        0.23260
C          4.25000       -1.19070        1.60130
H          1.78582        1.28324        1.41142
H          3.53081        0.84479        1.30695
H          2.33609       -0.30387        2.06454
H          1.83250       -1.20360       -2.37930
H          2.12740       -2.65590       -4.17560
H          2.63130       -4.30650       -3.66630
H          3.83780       -3.16930       -4.39220
H          6.50270       -5.90040       -1.95880
H          7.17140       -5.15260        0.30550
H          6.05520       -3.28340        1.35050
H          5.05790       -1.67260        2.17240
H          3.33290       -1.25390        2.22410
H          4.53130       -0.12200        1.48840
27

C          2.77231        0.80061        0.91269
O          2.26280       -0.12360        0.02380
C          2.93570       -1.17590       -0.51980
C          2.62110       -1.66500       -1.80000
C          3.31280       -2.74730       -2.34910
C          2.95360       -3.24570       -3.72450
C          4.33720       -3.36260       -1.61210
N          5.00480       -4.42180       -2.15050
C          6.00130       -5.06260       -1.49300
C          6.37590       -4.64240       -0.22260
C          5.72120       -3.56120        0.36650
C          4.67920       -2.88980       -0.31570
C          3.96880       -1.78030        0.23260
C          4.25000       -1.19070        1.60130
H          1.97947        1.53370        1.16628
H          3.62299        1.34594        0.45093
H          3.10056        0.29745        1.84680
H          1.83250       -1.20360       -2.37930
H          2.12740       -2.65590       -4.17560
H          2.63130       -4.30650       -3.66630
H          3.83780       -3.16930       -4.39220
H          6.50270       -5.90040       -1.95880
H          7.17140       -5.15260        0.30550
H          6.05520       -3.28340        1.35050
H          5.05790       -1.67260        2.17240
H          3.33290       -1.25390        2.22410
H          4.53130       -0.12200        1.48840
27

C          0.95015        0.22234       -0.22349
O          2.26280       -0.12360        0.02380
C          2.93570       -1.17590       -0.51980
C          2.62110       -1.66500       -1.80000
C          3.31280       -2.74730       -2.34910
C          2.95360       -3.24570       -3.72450
C          4.33720       -3.36260       -1.61210
N          5.00480       -4.42180       -2.15050
C          6.00130       -5.06260       -1.49300
C          6.37590       -4.64240       -0.22260
C          5.72120       -3.56120        0.36650
C          4.67920       -2.88980       -0.31570
C          3.96880       -1.78030        0.23260
C          4.25000       -1.19070        1.60130
H          0.69539        1.12325        0.37131
H          0.27346       -0.60464        0.08060
H          0.80920        0.45765       -1.29970
H          1.83250       -1.20360       -2.37930
H          2.12740       -2.65590       -4.17560
H          2.63130       -4.30650       -3.66630
H          3.83780       -3.16930       -4.39220
H          6.50270       -5.90040       -1.95880
H          7.17140       -5.15260        0.30550
H          6.05520       -3.28340        1.35050
H          5.05790       -1.67260        2.17240
H          3.33290       -1.25390        2.22410
H          4.53130       -0.12200        1.48840
27

C          1.23193        0.57921       -0.56549
O          2.26280       -0.12360        0.02380
C          2.93570       -1.17590       -0.51980
C          2.62110       -1.66500       -1.80000
C          3.31280       -2.74730       -2.34910
C          2.95360       -3.24570       -3.72450
C          4.33720       -3.36260       -1.61210
N          5.00480       -4.42180       -2.15050
C          6.00130       -5.06260       -1.49300
C          6.37590       -4.64240       -0.22260
C          5.72120       -3.56120        0.36650
C          4.67920       -2.88980       -0.31570
C          3.96880       -1.78030        0.23260
C          4.25000       -1.19070        1.60130
H          0.89259        1.37424        0.12956
H          0.37624       -0.09877       -0.77143
H          1.57864        1.05650       -1.50648
H          1.83250       -1.20360       -2.37930
H          2.12740       -2.65590       -4.17560
H          2.63130       -4.30650       -3.66630
H          3.83780       -3.16930       -4.39220
H          6.50270       -5.90040       -1.95880
H          7.17140       -5.15260        0.30550
H          6.05520       -3.28340        1.35050
H          5.05790       -1.67260        2.17240
H          3.33290       -1.25390        2.22410
H          4.53130       -0.12200        1.48840
27

C          1.67796        0.91730       -0.66785
O          2.26280       -0.12360        0.02380
C          2.93570       -1.17590       -0.51980
C          2.62110       -1.66500       -1.80000
C          3.31280       -2.74730       -2.34910
C          2.95360       -3.24570       -3.72450
C          4.33720       -3.36260       -1.61210
N          5.00480       -4.42180       -2.15050
C          6.00130       -5.06260       -1.49300
C          6.37590       -4.64240       -0.22260
C          5.72120       -3.56120        0.36650
C          4.67920       -2.88980       -0.31570
C          3.96880       -1.78030        0.23260
C          4.25000       -1.19070        1.60130
H          1.20589        1.61252        0.05614
H          0.89100        0.52878       -1.34904
H          2.44459        1.47559       -1.24585
H          1.83250       -1.20360       -2.37930
H          2.12740       -2.65590       -4.17560
H          2.63130       -4.30650       -3.66630
H          3.83780       -3.16930       -4.39220
H          6.50270       -5.90040       -1.95880
H          7.17140       -5.15260        0.30550
H          6.05520       -3.28340        1.35050
H          5.05790       -1.67260        2.17240
H          3.33290       -1.25390        2.22410
H          4.53130       -0.12200        1.48840
