
 OpenBabel02012214133D

 27 28  0  0  0  0  0  0  0  0999 V2000
    1.2070    0.5550   -0.5495 C   0  0  0  0  0  0  0  0  0  0  0  0
    2.2628   -0.1236    0.0238 O   0  0  0  0  0  0  0  0  0  0  0  0
    2.9357   -1.1759   -0.5198 C   0  0  0  0  0  0  0  0  0  0  0  0
    2.6211   -1.6650   -1.8000 C   0  0  0  0  0  0  0  0  0  0  0  0
    3.3128   -2.7473   -2.3491 C   0  0  0  0  0  0  0  0  0  0  0  0
    2.9536   -3.2457   -3.7245 C   0  0  0  0  0  0  0  0  0  0  0  0
    4.3372   -3.3626   -1.6121 C   0  0  0  0  0  0  0  0  0  0  0  0
    5.0048   -4.4218   -2.1505 N   0  0  0  0  0  0  0  0  0  0  0  0
    6.0013   -5.0626   -1.4930 C   0  0  0  0  0  0  0  0  0  0  0  0
    6.3759   -4.6424   -0.2226 C   0  0  0  0  0  0  0  0  0  0  0  0
    5.7212   -3.5612    0.3665 C   0  0  0  0  0  0  0  0  0  0  0  0
    4.6792   -2.8898   -0.3157 C   0  0  0  0  0  0  0  0  0  0  0  0
    3.9688   -1.7803    0.2326 C   0  0  0  0  0  0  0  0  0  0  0  0
    4.2500   -1.1907    1.6013 C   0  0  0  0  0  0  0  0  0  0  0  0
    0.8751    1.3572    0.1409 H   0  0  0  0  0  0  0  0  0  0  0  0
    0.3557   -0.1379   -0.7211 H   0  0  0  0  0  0  0  0  0  0  0  0
    1.5220    1.0207   -1.5073 H   0  0  0  0  0  0  0  0  0  0  0  0
    1.8325   -1.2036   -2.3793 H   0  0  0  0  0  0  0  0  0  0  0  0
    2.1274   -2.6559   -4.1756 H   0  0  0  0  0  0  0  0  0  0  0  0
    2.6313   -4.3065   -3.6663 H   0  0  0  0  0  0  0  0  0  0  0  0
    3.8378   -3.1693   -4.3922 H   0  0  0  0  0  0  0  0  0  0  0  0
    6.5027   -5.9004   -1.9588 H   0  0  0  0  0  0  0  0  0  0  0  0
    7.1714   -5.1526    0.3055 H   0  0  0  0  0  0  0  0  0  0  0  0
    6.0552   -3.2834    1.3505 H   0  0  0  0  0  0  0  0  0  0  0  0
    5.0579   -1.6726    2.1724 H   0  0  0  0  0  0  0  0  0  0  0  0
    3.3329   -1.2539    2.2241 H   0  0  0  0  0  0  0  0  0  0  0  0
    4.5313   -0.1220    1.4884 H   0  0  0  0  0  0  0  0  0  0  0  0
  1  2  1  0  0  0  0
  1 15  1  0  0  0  0
  1 16  1  0  0  0  0
  1 17  1  0  0  0  0
  2  3  1  0  0  0  0
  3  4  1  0  0  0  0
  3 13  2  0  0  0  0
  4  5  2  0  0  0  0
  4 18  1  0  0  0  0
  5  6  1  0  0  0  0
  5  7  1  0  0  0  0
  6 19  1  0  0  0  0
  6 20  1  0  0  0  0
  6 21  1  0  0  0  0
  7  8  1  0  0  0  0
  7 12  2  0  0  0  0
  8  9  2  0  0  0  0
  9 10  1  0  0  0  0
  9 22  1  0  0  0  0
 10 11  2  0  0  0  0
 10 23  1  0  0  0  0
 11 12  1  0  0  0  0
 11 24  1  0  0  0  0
 12 13  1  0  0  0  0
 13 14  1  0  0  0  0
 14 25  1  0  0  0  0
 14 26  1  0  0  0  0
 14 27  1  0  0  0  0
M  END
