
 OpenBabel02012214133D

 27 28  0  0  0  0  0  0  0  0999 V2000
    1.1131    0.3195   -0.5005 C   0  0  0  0  0  0  0  0  0  0  0  0
    2.4428    0.0681   -0.0530 O   0  0  0  0  0  0  0  0  0  0  0  0
    3.0528   -1.0335   -0.5994 C   0  0  0  0  0  0  0  0  0  0  0  0
    2.7561   -1.5131   -1.8707 C   0  0  0  0  0  0  0  0  0  0  0  0
    3.3924   -2.6579   -2.3708 C   0  0  0  0  0  0  0  0  0  0  0  0
    3.0375   -3.1434   -3.7514 C   0  0  0  0  0  0  0  0  0  0  0  0
    4.3431   -3.3389   -1.6095 C   0  0  0  0  0  0  0  0  0  0  0  0
    4.9045   -4.4495   -2.1302 N   0  0  0  0  0  0  0  0  0  0  0  0
    5.8178   -5.1213   -1.4036 C   0  0  0  0  0  0  0  0  0  0  0  0
    6.2217   -4.7335   -0.1481 C   0  0  0  0  0  0  0  0  0  0  0  0
    5.6488   -3.5867    0.3910 C   0  0  0  0  0  0  0  0  0  0  0  0
    4.6807   -2.8441   -0.3222 C   0  0  0  0  0  0  0  0  0  0  0  0
    4.0437   -1.6653    0.1768 C   0  0  0  0  0  0  0  0  0  0  0  0
    4.3594   -1.0665    1.5278 C   0  0  0  0  0  0  0  0  0  0  0  0
    0.6646    1.0574    0.1710 H   0  0  0  0  0  0  0  0  0  0  0  0
    0.4977   -0.5869   -0.4598 H   0  0  0  0  0  0  0  0  0  0  0  0
    1.1145    0.7475   -1.5079 H   0  0  0  0  0  0  0  0  0  0  0  0
    2.0362   -1.0034   -2.5033 H   0  0  0  0  0  0  0  0  0  0  0  0
    2.2521   -2.5287   -4.2049 H   0  0  0  0  0  0  0  0  0  0  0  0
    2.6641   -4.1717   -3.7099 H   0  0  0  0  0  0  0  0  0  0  0  0
    3.9133   -3.0963   -4.4065 H   0  0  0  0  0  0  0  0  0  0  0  0
    6.2234   -6.0100   -1.8774 H   0  0  0  0  0  0  0  0  0  0  0  0
    6.9591   -5.3058    0.4024 H   0  0  0  0  0  0  0  0  0  0  0  0
    5.9717   -3.2937    1.3844 H   0  0  0  0  0  0  0  0  0  0  0  0
    5.1975   -1.5399    2.0402 H   0  0  0  0  0  0  0  0  0  0  0  0
    3.4865   -1.1455    2.1844 H   0  0  0  0  0  0  0  0  0  0  0  0
    4.6297   -0.0104    1.4149 H   0  0  0  0  0  0  0  0  0  0  0  0
  1  2  1  0  0  0  0
  1 15  1  0  0  0  0
  1 16  1  0  0  0  0
  1 17  1  0  0  0  0
  2  3  1  0  0  0  0
  3  4  1  0  0  0  0
  3 13  2  0  0  0  0
  4  5  2  0  0  0  0
  4 18  1  0  0  0  0
  5  6  1  0  0  0  0
  5  7  1  0  0  0  0
  6 19  1  0  0  0  0
  6 20  1  0  0  0  0
  6 21  1  0  0  0  0
  7  8  1  0  0  0  0
  7 12  2  0  0  0  0
  8  9  2  0  0  0  0
  9 10  1  0  0  0  0
  9 22  1  0  0  0  0
 10 11  2  0  0  0  0
 10 23  1  0  0  0  0
 11 12  1  0  0  0  0
 11 24  1  0  0  0  0
 12 13  1  0  0  0  0
 13 14  1  0  0  0  0
 14 25  1  0  0  0  0
 14 26  1  0  0  0  0
 14 27  1  0  0  0  0
M  END
