
  xtb     02012214133D
 xtb: 6.4.1 (23d549d)
 27 28  0     0  0            999 V2000
    1.7273   -0.0755    1.1966 c   0  0  0  0  0  0  0  0  0  0  0  0
    2.4498    0.0403   -0.0152 o   0  0  0  0  0  0  0  0  0  0  0  0
    3.1260   -1.0813   -0.4504 c   0  0  0  0  0  0  0  0  0  0  0  0
    2.7517   -1.5576   -1.7234 c   0  0  0  0  0  0  0  0  0  0  0  0
    3.3383   -2.6530   -2.2908 c   0  0  0  0  0  0  0  0  0  0  0  0
    2.9644   -3.1487   -3.6494 c   0  0  0  0  0  0  0  0  0  0  0  0
    4.3289   -3.3470   -1.5473 c   0  0  0  0  0  0  0  0  0  0  0  0
    4.8642   -4.4535   -2.0969 n   0  0  0  0  0  0  0  0  0  0  0  0
    5.7723   -5.1141   -1.4369 c   0  0  0  0  0  0  0  0  0  0  0  0
    6.2271   -4.7414   -0.1626 c   0  0  0  0  0  0  0  0  0  0  0  0
    5.7001   -3.6192    0.4176 c   0  0  0  0  0  0  0  0  0  0  0  0
    4.7222   -2.8642   -0.2664 c   0  0  0  0  0  0  0  0  0  0  0  0
    4.1356   -1.6872    0.2685 c   0  0  0  0  0  0  0  0  0  0  0  0
    4.6373   -1.0978    1.5555 c   0  0  0  0  0  0  0  0  0  0  0  0
    0.7483    0.3796    1.0315 h   0  0  0  0  0  0  0  0  0  0  0  0
    2.2280    0.4583    2.0097 h   0  0  0  0  0  0  0  0  0  0  0  0
    1.5899   -1.1198    1.4841 h   0  0  0  0  0  0  0  0  0  0  0  0
    1.9786   -1.0123   -2.2444 h   0  0  0  0  0  0  0  0  0  0  0  0
    2.1401   -2.5725   -4.0605 h   0  0  0  0  0  0  0  0  0  0  0  0
    2.6880   -4.1993   -3.5980 h   0  0  0  0  0  0  0  0  0  0  0  0
    3.8217   -3.0746   -4.3159 h   0  0  0  0  0  0  0  0  0  0  0  0
    6.1683   -5.9947   -1.9276 h   0  0  0  0  0  0  0  0  0  0  0  0
    6.9719   -5.3364    0.3437 h   0  0  0  0  0  0  0  0  0  0  0  0
    6.0217   -3.3218    1.4047 h   0  0  0  0  0  0  0  0  0  0  0  0
    5.7194   -1.1880    1.6170 h   0  0  0  0  0  0  0  0  0  0  0  0
    4.2019   -1.5962    2.4225 h   0  0  0  0  0  0  0  0  0  0  0  0
    4.3906   -0.0409    1.5979 h   0  0  0  0  0  0  0  0  0  0  0  0
  1  2  1  0  0  0  0
  2  3  1  0  0  0  0
  3  4  4  0  0  0  0
  4  5  2  0  0  0  0
  5  6  1  0  0  0  0
  5  7  4  0  0  0  0
  7  8  4  0  0  0  0
  8  9  2  0  0  0  0
  9 10  4  0  0  0  0
 10 11  2  0  0  0  0
  7 12  4  0  0  0  0
 11 12  4  0  0  0  0
  3 13  4  0  0  0  0
 12 13  4  0  0  0  0
 13 14  1  0  0  0  0
  1 15  1  0  0  0  0
  1 16  1  0  0  0  0
  1 17  1  0  0  0  0
  4 18  1  0  0  0  0
  6 19  1  0  0  0  0
  6 20  1  0  0  0  0
  6 21  1  0  0  0  0
  9 22  1  0  0  0  0
 10 23  1  0  0  0  0
 11 24  1  0  0  0  0
 14 25  1  0  0  0  0
 14 26  1  0  0  0  0
 14 27  1  0  0  0  0
M  END
