20

C          2.44127        0.12428        1.64377
C          2.30530        0.26860        0.31850
C          3.18630        1.06260       -0.60150
C          2.78570        2.40180       -0.77450
C          3.52420        3.28490       -1.55180
C          4.67650        2.85120       -2.18800
C          5.09960        1.52880       -2.06260
F          6.18900        1.17350       -2.78280
C          4.37130        0.59860       -1.27010
C          4.77370       -0.84500       -1.21870
C          5.57005       -1.44444       -0.31507
F          6.08821       -0.80471        0.76242
F          5.82336       -2.77340       -0.44448
H          1.70579       -0.45643        2.19155
H          3.22165        0.59186        2.22450
H          1.41880       -0.19036       -0.11325
H          1.89610        2.77980       -0.28370
H          3.19910        4.31160       -1.66240
H          5.23810        3.54230       -2.80400
H          4.39031       -1.49389       -1.99510
20

C          2.05572       -1.04684        0.26385
C          2.30530        0.26860        0.31850
C          3.18630        1.06260       -0.60150
C          2.78570        2.40180       -0.77450
C          3.52420        3.28490       -1.55180
C          4.67650        2.85120       -2.18800
C          5.09960        1.52880       -2.06260
F          6.18900        1.17350       -2.78280
C          4.37130        0.59860       -1.27010
C          4.77370       -0.84500       -1.21870
C          4.53520       -1.73001       -0.23385
F          3.80467       -1.43740        0.87042
F          4.99158       -3.00268       -0.37201
H          1.42005       -1.49720        1.01970
H          2.48742       -1.71278       -0.46762
H          1.86828        0.79257        1.16549
H          1.89610        2.77980       -0.28370
H          3.19910        4.31160       -1.66240
H          5.23810        3.54230       -2.80400
H          5.32524       -1.23572       -2.06367
20

C          1.22745       -0.45338       -0.01713
C          2.30530        0.26860        0.31850
C          3.18630        1.06260       -0.60150
C          2.78570        2.40180       -0.77450
C          3.52420        3.28490       -1.55180
C          4.67650        2.85120       -2.18800
C          5.09960        1.52880       -2.06260
F          6.18900        1.17350       -2.78280
C          4.37130        0.59860       -1.27010
C          4.77370       -0.84500       -1.21870
C          4.42891       -1.82514       -2.07339
F          3.68775       -1.61453       -3.18921
F          4.89426       -3.08245       -1.85053
H          0.70063       -1.00798        0.75299
H          0.86463       -0.56134       -1.02787
H          2.60032        0.20999        1.36370
H          1.89610        2.77980       -0.28370
H          3.19910        4.31160       -1.66240
H          5.23810        3.54230       -2.80400
H          5.41334       -1.15199       -0.40172
20

C          2.05572       -1.04684        0.26385
C          2.30530        0.26860        0.31850
C          3.18630        1.06260       -0.60150
C          2.78570        2.40180       -0.77450
C          3.52420        3.28490       -1.55180
C          4.67650        2.85120       -2.18800
C          5.09960        1.52880       -2.06260
F          6.18900        1.17350       -2.78280
C          4.37130        0.59860       -1.27010
C          4.77370       -0.84500       -1.21870
C          6.01856       -1.35322       -1.26435
F          7.13611       -0.58597       -1.29804
F          6.17798       -2.70184       -1.21096
H          1.42005       -1.49720        1.01970
H          2.48742       -1.71278       -0.46762
H          1.86828        0.79257        1.16549
H          1.89610        2.77980       -0.28370
H          3.19910        4.31160       -1.66240
H          5.23810        3.54230       -2.80400
H          3.98118       -1.57748       -1.13978
20

C          1.22745       -0.45338       -0.01713
C          2.30530        0.26860        0.31850
C          3.18630        1.06260       -0.60150
C          2.78570        2.40180       -0.77450
C          3.52420        3.28490       -1.55180
C          4.67650        2.85120       -2.18800
C          5.09960        1.52880       -2.06260
F          6.18900        1.17350       -2.78280
C          4.37130        0.59860       -1.27010
C          4.77370       -0.84500       -1.21870
C          5.57005       -1.44444       -0.31507
F          6.08821       -0.80471        0.76242
F          5.82336       -2.77340       -0.44448
H          0.70063       -1.00798        0.75299
H          0.86463       -0.56134       -1.02787
H          2.60032        0.20999        1.36370
H          1.89610        2.77980       -0.28370
H          3.19910        4.31160       -1.66240
H          5.23810        3.54230       -2.80400
H          4.39031       -1.49389       -1.99510
20

C          2.44127        0.12428        1.64377
C          2.30530        0.26860        0.31850
C          3.18630        1.06260       -0.60150
C          2.78570        2.40180       -0.77450
C          3.52420        3.28490       -1.55180
C          4.67650        2.85120       -2.18800
C          5.09960        1.52880       -2.06260
F          6.18900        1.17350       -2.78280
C          4.37130        0.59860       -1.27010
C          4.77370       -0.84500       -1.21870
C          4.42891       -1.82514       -2.07339
F          3.68775       -1.61453       -3.18921
F          4.89426       -3.08245       -1.85053
H          1.70579       -0.45643        2.19155
H          3.22165        0.59186        2.22450
H          1.41880       -0.19036       -0.11325
H          1.89610        2.77980       -0.28370
H          3.19910        4.31160       -1.66240
H          5.23810        3.54230       -2.80400
H          5.41334       -1.15199       -0.40172
20

C          0.99470        0.44479        0.53514
C          2.30530        0.26860        0.31850
C          3.18630        1.06260       -0.60150
C          2.78570        2.40180       -0.77450
C          3.52420        3.28490       -1.55180
C          4.67650        2.85120       -2.18800
C          5.09960        1.52880       -2.06260
F          6.18900        1.17350       -2.78280
C          4.37130        0.59860       -1.27010
C          4.77370       -0.84500       -1.21870
C          4.42891       -1.82514       -2.07339
F          3.68775       -1.61453       -3.18921
F          4.89426       -3.08245       -1.85053
H          0.47363       -0.22949        1.20749
H          0.39792        1.19770        0.04333
H          2.75109       -0.58747        0.81984
H          1.89610        2.77980       -0.28370
H          3.19910        4.31160       -1.66240
H          5.23810        3.54230       -2.80400
H          5.41334       -1.15199       -0.40172
20

C          1.59513        0.73054        1.35673
C          2.30530        0.26860        0.31850
C          3.18630        1.06260       -0.60150
C          2.78570        2.40180       -0.77450
C          3.52420        3.28490       -1.55180
C          4.67650        2.85120       -2.18800
C          5.09960        1.52880       -2.06260
F          6.18900        1.17350       -2.78280
C          4.37130        0.59860       -1.27010
C          4.77370       -0.84500       -1.21870
C          4.42891       -1.82514       -2.07339
F          3.68775       -1.61453       -3.18921
F          4.89426       -3.08245       -1.85053
H          0.97085        0.04334        1.91909
H          1.56386        1.76814        1.65216
H          2.16664       -0.78551        0.08924
H          1.89610        2.77980       -0.28370
H          3.19910        4.31160       -1.66240
H          5.23810        3.54230       -2.80400
H          5.41334       -1.15199       -0.40172
20

C          1.22745       -0.45338       -0.01713
C          2.30530        0.26860        0.31850
C          3.18630        1.06260       -0.60150
C          2.78570        2.40180       -0.77450
C          3.52420        3.28490       -1.55180
C          4.67650        2.85120       -2.18800
C          5.09960        1.52880       -2.06260
F          6.18900        1.17350       -2.78280
C          4.37130        0.59860       -1.27010
C          4.77370       -0.84500       -1.21870
C          4.53520       -1.73001       -0.23385
F          3.80467       -1.43740        0.87042
F          4.99158       -3.00268       -0.37201
H          0.70063       -1.00798        0.75299
H          0.86463       -0.56134       -1.02787
H          2.60032        0.20999        1.36370
H          1.89610        2.77980       -0.28370
H          3.19910        4.31160       -1.66240
H          5.23810        3.54230       -2.80400
H          5.32524       -1.23572       -2.06367
20

C          1.22745       -0.45338       -0.01713
C          2.30530        0.26860        0.31850
C          3.18630        1.06260       -0.60150
C          2.78570        2.40180       -0.77450
C          3.52420        3.28490       -1.55180
C          4.67650        2.85120       -2.18800
C          5.09960        1.52880       -2.06260
F          6.18900        1.17350       -2.78280
C          4.37130        0.59860       -1.27010
C          4.77370       -0.84500       -1.21870
C          4.14131       -1.85249       -0.59014
F          2.96012       -1.70172        0.05854
F          4.67249       -3.10173       -0.65579
H          0.70063       -1.00798        0.75299
H          0.86463       -0.56134       -1.02787
H          2.60032        0.20999        1.36370
H          1.89610        2.77980       -0.28370
H          3.19910        4.31160       -1.66240
H          5.23810        3.54230       -2.80400
H          5.67944       -1.12547       -1.74005
