26

C          2.74430        1.52456       -0.44921
C          2.35220        0.39450        0.15440
C          2.90770       -0.17820        1.42410
C          3.93660        0.58170        1.99610
C          4.51910        0.23660        3.20620
O          5.49540        1.04970        3.69400
C          5.62683        2.41084        3.49535
F          4.59611        2.88021        2.69997
F          5.62795        3.07494        4.70937
F          6.82636        2.65528        2.85518
C          4.07630       -0.91100        3.87470
C          3.06350       -1.73750        3.34010
C          2.64710       -2.98100        4.08740
C          1.71171       -3.85938        3.68955
C          2.47290       -1.37520        2.08190
N          1.51180       -2.22950        1.45880
H          2.28610        1.81016       -1.39091
H          3.53857        2.15646       -0.07786
H          1.61319       -0.19519       -0.38230
H          4.28150        1.48600        1.50600
H          4.54150       -1.15260        4.81120
H          3.10490       -3.24036        5.02744
H          1.14230       -3.77214        2.77652
H          1.49591       -4.72224        4.31236
H          1.12290       -3.06690        1.89990
H          1.28500       -2.14630        0.46340
26

C          1.32627        1.24954        0.04713
C          2.35220        0.39450        0.15440
C          2.90770       -0.17820        1.42410
C          3.93660        0.58170        1.99610
C          4.51910        0.23660        3.20620
O          5.49540        1.04970        3.69400
C          5.62683        2.41084        3.49535
F          4.59611        2.88021        2.69997
F          5.62795        3.07494        4.70937
F          6.82636        2.65528        2.85518
C          4.07630       -0.91100        3.87470
C          3.06350       -1.73750        3.34010
C          2.64710       -2.98100        4.08740
C          1.67237       -3.05322        5.00908
C          2.47290       -1.37520        2.08190
N          1.51180       -2.22950        1.45880
H          1.04582        1.62219       -0.93306
H          0.78145        1.63944        0.89520
H          2.87353        0.16450       -0.77147
H          4.28150        1.48600        1.50600
H          4.54150       -1.15260        4.81120
H          3.13687       -3.92364        3.90828
H          1.06870       -2.21587        5.32513
H          1.46016       -4.00711        5.48240
H          1.12290       -3.06690        1.89990
H          1.28500       -2.14630        0.46340
26

C          2.74430        1.52456       -0.44921
C          2.35220        0.39450        0.15440
C          2.90770       -0.17820        1.42410
C          3.93660        0.58170        1.99610
C          4.51910        0.23660        3.20620
O          5.49540        1.04970        3.69400
C          5.80427        1.28278        5.02054
F          4.96178        0.55549        5.84309
F          7.12171        0.94310        5.27321
F          5.63358        2.62699        5.28963
C          4.07630       -0.91100        3.87470
C          3.06350       -1.73750        3.34010
C          2.64710       -2.98100        4.08740
C          3.17986       -4.20460        3.93319
C          2.47290       -1.37520        2.08190
N          1.51180       -2.22950        1.45880
H          2.28610        1.81016       -1.39091
H          3.53857        2.15646       -0.07786
H          1.61319       -0.19519       -0.38230
H          4.28150        1.48600        1.50600
H          4.54150       -1.15260        4.81120
H          1.85993       -2.94689        4.82206
H          3.97757       -4.44006        3.24495
H          2.79788       -5.02791        4.52918
H          1.12290       -3.06690        1.89990
H          1.28500       -2.14630        0.46340
26

C          1.09653        0.26743       -0.29533
C          2.35220        0.39450        0.15440
C          2.90770       -0.17820        1.42410
C          3.93660        0.58170        1.99610
C          4.51910        0.23660        3.20620
O          5.49540        1.04970        3.69400
C          5.98819        2.20426        3.11644
F          5.34080        2.45450        1.91911
F          5.82633        3.27715        3.97528
F          7.33619        2.03766        2.86430
C          4.07630       -0.91100        3.87470
C          3.06350       -1.73750        3.34010
C          2.64710       -2.98100        4.08740
C          1.67237       -3.05322        5.00908
C          2.47290       -1.37520        2.08190
N          1.51180       -2.22950        1.45880
H          0.80880        0.76687       -1.21516
H          0.32258       -0.26887        0.23520
H          2.99869        1.04549       -0.42886
H          4.28150        1.48600        1.50600
H          4.54150       -1.15260        4.81120
H          3.13687       -3.92364        3.90828
H          1.06870       -2.21587        5.32513
H          1.46016       -4.00711        5.48240
H          1.12290       -3.06690        1.89990
H          1.28500       -2.14630        0.46340
26

C          2.29502        1.69132       -0.17743
C          2.35220        0.39450        0.15440
C          2.90770       -0.17820        1.42410
C          3.93660        0.58170        1.99610
C          4.51910        0.23660        3.20620
O          5.49540        1.04970        3.69400
C          5.80427        1.28278        5.02054
F          4.96178        0.55549        5.84309
F          7.12171        0.94310        5.27321
F          5.63358        2.62699        5.28963
C          4.07630       -0.91100        3.87470
C          3.06350       -1.73750        3.34010
C          2.64710       -2.98100        4.08740
C          2.18308       -4.11241        3.53117
C          2.47290       -1.37520        2.08190
N          1.51180       -2.22950        1.45880
H          1.90291        1.97398       -1.14937
H          2.66832        2.48675        0.45186
H          2.03391       -0.30402       -0.61546
H          4.28150        1.48600        1.50600
H          4.54150       -1.15260        4.81120
H          2.70543       -3.02563        5.16217
H          2.05218       -4.26108        2.46993
H          1.91408       -4.94652        4.17217
H          1.12290       -3.06690        1.89990
H          1.28500       -2.14630        0.46340
26

C          1.32627        1.24954        0.04713
C          2.35220        0.39450        0.15440
C          2.90770       -0.17820        1.42410
C          3.93660        0.58170        1.99610
C          4.51910        0.23660        3.20620
O          5.49540        1.04970        3.69400
C          5.98819        2.20426        3.11644
F          5.34080        2.45450        1.91911
F          5.82633        3.27715        3.97528
F          7.33619        2.03766        2.86430
C          4.07630       -0.91100        3.87470
C          3.06350       -1.73750        3.34010
C          2.64710       -2.98100        4.08740
C          1.42129       -3.53058        4.07485
C          2.47290       -1.37520        2.08190
N          1.51180       -2.22950        1.45880
H          1.04582        1.62219       -0.93306
H          0.78145        1.63944        0.89520
H          2.87353        0.16450       -0.77147
H          4.28150        1.48600        1.50600
H          4.54150       -1.15260        4.81120
H          3.35071       -3.51921        4.70041
H          0.58223       -3.13712        3.52112
H          1.23808       -4.43067        4.65386
H          1.12290       -3.06690        1.89990
H          1.28500       -2.14630        0.46340
26

C          2.74430        1.52456       -0.44921
C          2.35220        0.39450        0.15440
C          2.90770       -0.17820        1.42410
C          3.93660        0.58170        1.99610
C          4.51910        0.23660        3.20620
O          5.49540        1.04970        3.69400
C          5.98819        2.20426        3.11644
F          5.34080        2.45450        1.91911
F          5.82633        3.27715        3.97528
F          7.33619        2.03766        2.86430
C          4.07630       -0.91100        3.87470
C          3.06350       -1.73750        3.34010
C          2.64710       -2.98100        4.08740
C          1.67237       -3.05322        5.00908
C          2.47290       -1.37520        2.08190
N          1.51180       -2.22950        1.45880
H          2.28610        1.81016       -1.39091
H          3.53857        2.15646       -0.07786
H          1.61319       -0.19519       -0.38230
H          4.28150        1.48600        1.50600
H          4.54150       -1.15260        4.81120
H          3.13687       -3.92364        3.90828
H          1.06870       -2.21587        5.32513
H          1.46016       -4.00711        5.48240
H          1.12290       -3.06690        1.89990
H          1.28500       -2.14630        0.46340
26

C          1.09653        0.26743       -0.29533
C          2.35220        0.39450        0.15440
C          2.90770       -0.17820        1.42410
C          3.93660        0.58170        1.99610
C          4.51910        0.23660        3.20620
O          5.49540        1.04970        3.69400
C          5.80427        1.28278        5.02054
F          4.96178        0.55549        5.84309
F          7.12171        0.94310        5.27321
F          5.63358        2.62699        5.28963
C          4.07630       -0.91100        3.87470
C          3.06350       -1.73750        3.34010
C          2.64710       -2.98100        4.08740
C          1.67237       -3.05322        5.00908
C          2.47290       -1.37520        2.08190
N          1.51180       -2.22950        1.45880
H          0.80880        0.76687       -1.21516
H          0.32258       -0.26887        0.23520
H          2.99869        1.04549       -0.42886
H          4.28150        1.48600        1.50600
H          4.54150       -1.15260        4.81120
H          3.13687       -3.92364        3.90828
H          1.06870       -2.21587        5.32513
H          1.46016       -4.00711        5.48240
H          1.12290       -3.06690        1.89990
H          1.28500       -2.14630        0.46340
26

C          1.32627        1.24954        0.04713
C          2.35220        0.39450        0.15440
C          2.90770       -0.17820        1.42410
C          3.93660        0.58170        1.99610
C          4.51910        0.23660        3.20620
O          5.49540        1.04970        3.69400
C          5.80427        1.28278        5.02054
F          4.96178        0.55549        5.84309
F          7.12171        0.94310        5.27321
F          5.63358        2.62699        5.28963
C          4.07630       -0.91100        3.87470
C          3.06350       -1.73750        3.34010
C          2.64710       -2.98100        4.08740
C          1.67237       -3.05322        5.00908
C          2.47290       -1.37520        2.08190
N          1.51180       -2.22950        1.45880
H          1.04582        1.62219       -0.93306
H          0.78145        1.63944        0.89520
H          2.87353        0.16450       -0.77147
H          4.28150        1.48600        1.50600
H          4.54150       -1.15260        4.81120
H          3.13687       -3.92364        3.90828
H          1.06870       -2.21587        5.32513
H          1.46016       -4.00711        5.48240
H          1.12290       -3.06690        1.89990
H          1.28500       -2.14630        0.46340
26

C          1.09653        0.26743       -0.29533
C          2.35220        0.39450        0.15440
C          2.90770       -0.17820        1.42410
C          3.93660        0.58170        1.99610
C          4.51910        0.23660        3.20620
O          5.49540        1.04970        3.69400
C          5.80427        1.28278        5.02054
F          4.96178        0.55549        5.84309
F          7.12171        0.94310        5.27321
F          5.63358        2.62699        5.28963
C          4.07630       -0.91100        3.87470
C          3.06350       -1.73750        3.34010
C          2.64710       -2.98100        4.08740
C          3.17986       -4.20460        3.93319
C          2.47290       -1.37520        2.08190
N          1.51180       -2.22950        1.45880
H          0.80880        0.76687       -1.21516
H          0.32258       -0.26887        0.23520
H          2.99869        1.04549       -0.42886
H          4.28150        1.48600        1.50600
H          4.54150       -1.15260        4.81120
H          1.85993       -2.94689        4.82206
H          3.97757       -4.44006        3.24495
H          2.79788       -5.02791        4.52918
H          1.12290       -3.06690        1.89990
H          1.28500       -2.14630        0.46340
