
  xtb     02032211183D
 xtb: 6.4.1 (23d549d)
 26 26  0     0  0            999 V2000
    2.3977    1.4204   -0.4167 c   0  0  0  0  0  0  0  0  0  0  0  0
    2.6232    0.1755   -0.0201 c   0  0  0  0  0  0  0  0  0  0  0  0
    3.0596   -0.2059    1.3238 c   0  0  0  0  0  0  0  0  0  0  0  0
    3.9410    0.6299    2.0059 c   0  0  0  0  0  0  0  0  0  0  0  0
    4.4062    0.2689    3.2527 c   0  0  0  0  0  0  0  0  0  0  0  0
    5.3261    1.0362    4.0116 o   0  0  0  0  0  0  0  0  0  0  0  0
    5.6063    2.2639    3.6532 c   0  0  0  0  0  0  0  0  0  0  0  0
    4.5344    3.0642    3.4945 f   0  0  0  0  0  0  0  0  0  0  0  0
    6.3656    2.8290    4.5902 f   0  0  0  0  0  0  0  0  0  0  0  0
    6.2974    2.3699    2.4983 f   0  0  0  0  0  0  0  0  0  0  0  0
    4.0048   -0.9167    3.8403 c   0  0  0  0  0  0  0  0  0  0  0  0
    3.0976   -1.7518    3.2013 c   0  0  0  0  0  0  0  0  0  0  0  0
    2.6906   -2.9684    3.9083 c   0  0  0  0  0  0  0  0  0  0  0  0
    1.4676   -3.4823    3.9518 c   0  0  0  0  0  0  0  0  0  0  0  0
    2.6232   -1.4071    1.9175 c   0  0  0  0  0  0  0  0  0  0  0  0
    1.7090   -2.2086    1.2791 n   0  0  0  0  0  0  0  0  0  0  0  0
    2.1048    1.6467   -1.4275 h   0  0  0  0  0  0  0  0  0  0  0  0
    2.4791    2.2572    0.2562 h   0  0  0  0  0  0  0  0  0  0  0  0
    2.4989   -0.6312   -0.7334 h   0  0  0  0  0  0  0  0  0  0  0  0
    4.2664    1.5340    1.5186 h   0  0  0  0  0  0  0  0  0  0  0  0
    4.3912   -1.1747    4.8128 h   0  0  0  0  0  0  0  0  0  0  0  0
    3.4819   -3.4369    4.4809 h   0  0  0  0  0  0  0  0  0  0  0  0
    0.6279   -3.0151    3.4666 h   0  0  0  0  0  0  0  0  0  0  0  0
    1.2555   -4.3696    4.5241 h   0  0  0  0  0  0  0  0  0  0  0  0
    1.6780   -3.1690    1.5841 h   0  0  0  0  0  0  0  0  0  0  0  0
    1.5937   -2.0651    0.2896 h   0  0  0  0  0  0  0  0  0  0  0  0
  1  2  2  0  0  0  0
  2  3  1  0  0  0  0
  3  4  4  0  0  0  0
  4  5  4  0  0  0  0
  5  6  1  0  0  0  0
  6  7  1  0  0  0  0
  7  8  1  0  0  0  0
  7  9  1  0  0  0  0
  7 10  1  0  0  0  0
  5 11  4  0  0  0  0
 11 12  4  0  0  0  0
 12 13  1  0  0  0  0
 13 14  2  0  0  0  0
  3 15  4  0  0  0  0
 12 15  4  0  0  0  0
 15 16  1  0  0  0  0
  1 17  1  0  0  0  0
  1 18  1  0  0  0  0
  2 19  1  0  0  0  0
  4 20  1  0  0  0  0
 11 21  1  0  0  0  0
 13 22  1  0  0  0  0
 14 23  1  0  0  0  0
 14 24  1  0  0  0  0
 16 25  1  0  0  0  0
 16 26  1  0  0  0  0
M  END
