
  xtb     02032210593D
 xtb: 6.4.1 (23d549d)
 30 31  0     0  0            999 V2000
    0.8279    0.6980   -0.1627 c   0  0  0  0  0  0  0  0  0  0  0  0
    2.1485    0.5975   -0.2007 c   0  0  0  0  0  0  0  0  0  0  0  0
    3.0547    0.8024    0.9308 c   0  0  0  0  0  0  0  0  0  0  0  0
    4.2669    1.4484    0.6909 c   0  0  0  0  0  0  0  0  0  0  0  0
    5.1449    1.7366    1.7177 c   0  0  0  0  0  0  0  0  0  0  0  0
    4.8263    1.3731    3.0155 c   0  0  0  0  0  0  0  0  0  0  0  0
    3.6406    0.7084    3.2671 c   0  0  0  0  0  0  0  0  0  0  0  0
    2.7518    0.4050    2.2407 c   0  0  0  0  0  0  0  0  0  0  0  0
    1.5388   -0.3654    2.5795 c   0  0  0  0  0  0  0  0  0  0  0  0
    0.6431    0.1562    3.5056 c   0  0  0  0  0  0  0  0  0  0  0  0
   -0.4987   -0.5390    3.8589 c   0  0  0  0  0  0  0  0  0  0  0  0
   -0.7486   -1.7788    3.2943 c   0  0  0  0  0  0  0  0  0  0  0  0
    0.1428   -2.3143    2.3844 c   0  0  0  0  0  0  0  0  0  0  0  0
    1.2938   -1.6247    2.0105 c   0  0  0  0  0  0  0  0  0  0  0  0
    2.2538   -2.2111    1.0776 c   0  0  0  0  0  0  0  0  0  0  0  0
    1.9473   -3.0512    0.0986 c   0  0  0  0  0  0  0  0  0  0  0  0
    0.2298    0.5683   -1.0488 h   0  0  0  0  0  0  0  0  0  0  0  0
    0.2939    0.9223    0.7445 h   0  0  0  0  0  0  0  0  0  0  0  0
    2.6413    0.4120   -1.1478 h   0  0  0  0  0  0  0  0  0  0  0  0
    4.5099    1.7415   -0.3210 h   0  0  0  0  0  0  0  0  0  0  0  0
    6.0757    2.2424    1.5073 h   0  0  0  0  0  0  0  0  0  0  0  0
    5.5039    1.5961    3.8263 h   0  0  0  0  0  0  0  0  0  0  0  0
    3.3991    0.3960    4.2735 h   0  0  0  0  0  0  0  0  0  0  0  0
    0.8420    1.1274    3.9373 h   0  0  0  0  0  0  0  0  0  0  0  0
   -1.1886   -0.1175    4.5756 h   0  0  0  0  0  0  0  0  0  0  0  0
   -1.6341   -2.3319    3.5716 h   0  0  0  0  0  0  0  0  0  0  0  0
   -0.0392   -3.2952    1.9719 h   0  0  0  0  0  0  0  0  0  0  0  0
    3.2839   -1.9071    1.2179 h   0  0  0  0  0  0  0  0  0  0  0  0
    0.9327   -3.3508   -0.1043 h   0  0  0  0  0  0  0  0  0  0  0  0
    2.7015   -3.4572   -0.5534 h   0  0  0  0  0  0  0  0  0  0  0  0
  1  2  2  0  0  0  0
  2  3  1  0  0  0  0
  3  4  4  0  0  0  0
  4  5  4  0  0  0  0
  5  6  4  0  0  0  0
  6  7  4  0  0  0  0
  3  8  4  0  0  0  0
  7  8  4  0  0  0  0
  8  9  1  0  0  0  0
  9 10  4  0  0  0  0
 10 11  4  0  0  0  0
 11 12  4  0  0  0  0
 12 13  4  0  0  0  0
  9 14  4  0  0  0  0
 13 14  4  0  0  0  0
 14 15  1  0  0  0  0
 15 16  2  0  0  0  0
  1 17  1  0  0  0  0
  1 18  1  0  0  0  0
  2 19  1  0  0  0  0
  4 20  1  0  0  0  0
  5 21  1  0  0  0  0
  6 22  1  0  0  0  0
  7 23  1  0  0  0  0
 10 24  1  0  0  0  0
 11 25  1  0  0  0  0
 12 26  1  0  0  0  0
 13 27  1  0  0  0  0
 15 28  1  0  0  0  0
 16 29  1  0  0  0  0
 16 30  1  0  0  0  0
M  END
