
 OpenBabel02032211013D

 23 23  0  0  0  0  0  0  0  0999 V2000
    1.0431   -0.0127   -0.0754 C   0  0  0  0  0  0  0  0  0  0  0  0
    2.3790   -0.0218    0.0172 C   0  0  0  0  0  0  0  0  0  0  0  0
    3.1646   -1.0846    0.6568 C   0  0  0  0  0  0  0  0  0  0  0  0
    4.3695   -0.7606    1.2794 C   0  0  0  0  0  0  0  0  0  0  0  0
    5.1662   -1.7571    1.8577 C   0  0  0  0  0  0  0  0  0  0  0  0
    4.7972   -3.1163    1.8273 C   0  0  0  0  0  0  0  0  0  0  0  0
    5.7868   -4.0381    2.4128 C   0  0  0  0  0  0  0  0  0  0  0  0
    5.5633   -5.1482    3.1255 C   0  0  0  0  0  0  0  0  0  0  0  0
    3.5942   -3.4326    1.1778 C   0  0  0  0  0  0  0  0  0  0  0  0
    3.0380   -5.0949    0.9431 S   0  0  0  0  0  0  0  0  0  0  0  0
    4.0634   -5.8357    0.2343 O   0  0  0  0  0  0  0  0  0  0  0  0
    2.4382   -5.5536    2.1784 O   0  0  0  0  0  0  0  0  0  0  0  0
    1.8242   -5.0239   -0.0805 F   0  0  0  0  0  0  0  0  0  0  0  0
    2.7890   -2.4293    0.6020 C   0  0  0  0  0  0  0  0  0  0  0  0
    0.5336    0.8138   -0.5619 H   0  0  0  0  0  0  0  0  0  0  0  0
    0.4183   -0.7990    0.3355 H   0  0  0  0  0  0  0  0  0  0  0  0
    2.9424    0.8151   -0.3916 H   0  0  0  0  0  0  0  0  0  0  0  0
    4.7075    0.2739    1.3248 H   0  0  0  0  0  0  0  0  0  0  0  0
    6.0969   -1.4509    2.3344 H   0  0  0  0  0  0  0  0  0  0  0  0
    6.8273   -3.7405    2.2765 H   0  0  0  0  0  0  0  0  0  0  0  0
    4.5815   -5.5324    3.3705 H   0  0  0  0  0  0  0  0  0  0  0  0
    6.4045   -5.7207    3.5092 H   0  0  0  0  0  0  0  0  0  0  0  0
    1.8726   -2.7023    0.0823 H   0  0  0  0  0  0  0  0  0  0  0  0
  1  2  2  0  0  0  0
  1 15  1  0  0  0  0
  1 16  1  0  0  0  0
  2  3  1  0  0  0  0
  2 17  1  0  0  0  0
  3  4  1  0  0  0  0
  3 14  2  0  0  0  0
  4  5  2  0  0  0  0
  4 18  1  0  0  0  0
  5  6  1  0  0  0  0
  5 19  1  0  0  0  0
  6  7  1  0  0  0  0
  6  9  2  0  0  0  0
  7  8  2  0  0  0  0
  7 20  1  0  0  0  0
  8 21  1  0  0  0  0
  8 22  1  0  0  0  0
  9 10  1  0  0  0  0
  9 14  1  0  0  0  0
 10 11  2  0  0  0  0
 10 12  2  0  0  0  0
 10 13  1  0  0  0  0
 14 23  1  0  0  0  0
M  END
