 xtb: 6.5.0 (unknown)
          08122213093D

 23  0  0     0  0            999 V2000
   -4.5230   -1.3175   -0.0388 C   0  0  0  0  0  0  0  0  0  0  0  0
   -3.8246   -0.1881   -0.0611 C   0  0  0  0  0  0  0  0  0  0  0  0
   -2.3758   -0.0594    0.0095 C   0  0  0  0  0  0  0  0  0  0  0  0
   -1.5158   -1.1467    0.1670 C   0  0  0  0  0  0  0  0  0  0  0  0
   -0.1527   -0.9598    0.2263 C   0  0  0  0  0  0  0  0  0  0  0  0
    0.4121    0.3141    0.1312 C   0  0  0  0  0  0  0  0  0  0  0  0
    1.8517    0.5157    0.2109 C   0  0  0  0  0  0  0  0  0  0  0  0
    2.8057   -0.3777   -0.0030 C   0  0  0  0  0  0  0  0  0  0  0  0
    2.6763   -1.6496   -0.3637 F   0  0  0  0  0  0  0  0  0  0  0  0
    4.1048   -0.0927    0.1047 F   0  0  0  0  0  0  0  0  0  0  0  0
   -0.4397    1.4212   -0.0231 C   0  0  0  0  0  0  0  0  0  0  0  0
    0.0995    2.8158   -0.1416 C   0  0  0  0  0  0  0  0  0  0  0  0
   -1.8059    1.2113   -0.0810 C   0  0  0  0  0  0  0  0  0  0  0  0
   -5.5978   -1.3110   -0.0979 H   0  0  0  0  0  0  0  0  0  0  0  0
   -4.0624   -2.2874    0.0360 H   0  0  0  0  0  0  0  0  0  0  0  0
   -4.3554    0.7530   -0.1433 H   0  0  0  0  0  0  0  0  0  0  0  0
   -1.9130   -2.1458    0.2492 H   0  0  0  0  0  0  0  0  0  0  0  0
    0.4859   -1.8175    0.3633 H   0  0  0  0  0  0  0  0  0  0  0  0
    2.2060    1.5026    0.4658 H   0  0  0  0  0  0  0  0  0  0  0  0
    0.6057    3.1145    0.7763 H   0  0  0  0  0  0  0  0  0  0  0  0
   -0.7087    3.5190   -0.3249 H   0  0  0  0  0  0  0  0  0  0  0  0
    0.8108    2.8888   -0.9628 H   0  0  0  0  0  0  0  0  0  0  0  0
   -2.4589    2.0648   -0.2036 H   0  0  0  0  0  0  0  0  0  0  0  0
M  END
