
  xtb     02032211353D
 xtb: 6.4.1 (23d549d)
 26 26  0     0  0            999 V2000
   -4.4708    0.4943   -0.7206 C   0  0  0  0  0  0  0  0  0  0  0  0
   -3.6776   -0.5492   -0.5102 C   0  0  0  0  0  0  0  0  0  0  0  0
   -2.2629   -0.5146   -0.1591 C   0  0  0  0  0  0  0  0  0  0  0  0
   -1.6041   -1.7137    0.1145 C   0  0  0  0  0  0  0  0  0  0  0  0
   -0.2667   -1.7209    0.4565 C   0  0  0  0  0  0  0  0  0  0  0  0
    0.4599   -0.5422    0.5318 C   0  0  0  0  0  0  0  0  0  0  0  0
    1.9120   -0.5822    0.9217 C   0  0  0  0  0  0  0  0  0  0  0  0
    2.8336   -0.4564   -0.2864 C   0  0  0  0  0  0  0  0  0  0  0  0
    2.4760   -0.3921   -1.4227 O   0  0  0  0  0  0  0  0  0  0  0  0
    4.1463   -0.4285    0.0269 O   0  0  0  0  0  0  0  0  0  0  0  0
   -0.1783    0.6713    0.2461 C   0  0  0  0  0  0  0  0  0  0  0  0
    0.5572    1.9390    0.2818 C   0  0  0  0  0  0  0  0  0  0  0  0
    0.0578    3.0780    0.7390 C   0  0  0  0  0  0  0  0  0  0  0  0
   -1.5266    0.6651   -0.0888 C   0  0  0  0  0  0  0  0  0  0  0  0
   -5.5089    0.3651   -0.9748 H   0  0  0  0  0  0  0  0  0  0  0  0
   -4.1280    1.5122   -0.6503 H   0  0  0  0  0  0  0  0  0  0  0  0
   -4.0932   -1.5465   -0.5921 H   0  0  0  0  0  0  0  0  0  0  0  0
   -2.1470   -2.6463    0.0588 H   0  0  0  0  0  0  0  0  0  0  0  0
    0.2225   -2.6613    0.6694 H   0  0  0  0  0  0  0  0  0  0  0  0
    2.1381   -1.5353    1.4102 H   0  0  0  0  0  0  0  0  0  0  0  0
    2.1434    0.2263    1.6223 H   0  0  0  0  0  0  0  0  0  0  0  0
    4.3087   -0.4920    0.9770 H   0  0  0  0  0  0  0  0  0  0  0  0
    1.5658    1.9117   -0.1092 H   0  0  0  0  0  0  0  0  0  0  0  0
   -0.9357    3.1389    1.1521 H   0  0  0  0  0  0  0  0  0  0  0  0
    0.6285    3.9910    0.7326 H   0  0  0  0  0  0  0  0  0  0  0  0
   -1.9979    1.6054   -0.3272 H   0  0  0  0  0  0  0  0  0  0  0  0
  1  2  2  0  0  0  0
  2  3  1  0  0  0  0
  3  4  4  0  0  0  0
  4  5  4  0  0  0  0
  5  6  4  0  0  0  0
  6  7  1  0  0  0  0
  7  8  1  0  0  0  0
  8  9  2  0  0  0  0
  8 10  1  0  0  0  0
  6 11  4  0  0  0  0
 11 12  1  0  0  0  0
 12 13  2  0  0  0  0
  3 14  4  0  0  0  0
 11 14  4  0  0  0  0
  1 15  1  0  0  0  0
  1 16  1  0  0  0  0
  2 17  1  0  0  0  0
  4 18  1  0  0  0  0
  5 19  1  0  0  0  0
  7 20  1  0  0  0  0
  7 21  1  0  0  0  0
 10 22  1  0  0  0  0
 12 23  1  0  0  0  0
 13 24  1  0  0  0  0
 13 25  1  0  0  0  0
 14 26  1  0  0  0  0
M  END
