
  xtb     02032211353D
 xtb: 6.4.1 (23d549d)
 24 24  0     0  0            999 V2000
   -3.3006   -0.5827    0.3493 C   0  0  0  0  0  0  0  0  0  0  0  0
   -2.6783    0.4488   -0.2050 C   0  0  0  0  0  0  0  0  0  0  0  0
   -1.2467    0.7373   -0.1223 C   0  0  0  0  0  0  0  0  0  0  0  0
   -0.8700    2.0770   -0.0161 C   0  0  0  0  0  0  0  0  0  0  0  0
    0.4552    2.4236    0.1217 C   0  0  0  0  0  0  0  0  0  0  0  0
    1.4343    1.4433    0.1345 C   0  0  0  0  0  0  0  0  0  0  0  0
    1.0865    0.1052    0.0069 C   0  0  0  0  0  0  0  0  0  0  0  0
    2.0019   -0.9056   -0.0300 O   0  0  0  0  0  0  0  0  0  0  0  0
    3.3692   -0.5836   -0.0495 C   0  0  0  0  0  0  0  0  0  0  0  0
   -0.2676   -0.2662   -0.1230 C   0  0  0  0  0  0  0  0  0  0  0  0
   -0.6382   -1.6638   -0.3536 C   0  0  0  0  0  0  0  0  0  0  0  0
   -0.1081   -2.7213    0.2434 C   0  0  0  0  0  0  0  0  0  0  0  0
   -4.3676   -0.7056    0.2659 H   0  0  0  0  0  0  0  0  0  0  0  0
   -2.7748   -1.3270    0.9225 H   0  0  0  0  0  0  0  0  0  0  0  0
   -3.2597    1.2020   -0.7244 H   0  0  0  0  0  0  0  0  0  0  0  0
   -1.6328    2.8418   -0.0245 H   0  0  0  0  0  0  0  0  0  0  0  0
    0.7409    3.4609    0.2156 H   0  0  0  0  0  0  0  0  0  0  0  0
    2.4667    1.7368    0.2379 H   0  0  0  0  0  0  0  0  0  0  0  0
    3.8909   -1.5342   -0.1534 H   0  0  0  0  0  0  0  0  0  0  0  0
    3.6863   -0.1009    0.8813 H   0  0  0  0  0  0  0  0  0  0  0  0
    3.6224    0.0610   -0.8977 H   0  0  0  0  0  0  0  0  0  0  0  0
   -1.4285   -1.8022   -1.0828 H   0  0  0  0  0  0  0  0  0  0  0  0
    0.6517   -2.6316    0.9990 H   0  0  0  0  0  0  0  0  0  0  0  0
   -0.4302   -3.7204    0.0008 H   0  0  0  0  0  0  0  0  0  0  0  0
  1  2  2  0  0  0  0
  2  3  1  0  0  0  0
  3  4  4  0  0  0  0
  4  5  4  0  0  0  0
  5  6  4  0  0  0  0
  6  7  4  0  0  0  0
  7  8  1  0  0  0  0
  8  9  1  0  0  0  0
  3 10  4  0  0  0  0
  7 10  4  0  0  0  0
 10 11  1  0  0  0  0
 11 12  2  0  0  0  0
  1 13  1  0  0  0  0
  1 14  1  0  0  0  0
  2 15  1  0  0  0  0
  4 16  1  0  0  0  0
  5 17  1  0  0  0  0
  6 18  1  0  0  0  0
  9 19  1  0  0  0  0
  9 20  1  0  0  0  0
  9 21  1  0  0  0  0
 11 22  1  0  0  0  0
 12 23  1  0  0  0  0
 12 24  1  0  0  0  0
M  END
