
  xtb     02032211353D
 xtb: 6.4.1 (23d549d)
 20 20  0     0  0            999 V2000
   -3.4773    0.5272    0.7576 C   0  0  0  0  0  0  0  0  0  0  0  0
   -2.8913   -0.3118   -0.0840 C   0  0  0  0  0  0  0  0  0  0  0  0
   -1.4548   -0.5539   -0.1613 C   0  0  0  0  0  0  0  0  0  0  0  0
   -0.9684   -1.8085   -0.4031 C   0  0  0  0  0  0  0  0  0  0  0  0
    0.7342   -1.9054   -0.3315 S   0  0  0  0  0  0  0  0  0  0  0  0
    0.8426   -0.1994    0.0148 C   0  0  0  0  0  0  0  0  0  0  0  0
    2.1380    0.4648    0.1957 C   0  0  0  0  0  0  0  0  0  0  0  0
    2.2514    1.6493    0.3750 O   0  0  0  0  0  0  0  0  0  0  0  0
    3.2285   -0.3250    0.1599 O   0  0  0  0  0  0  0  0  0  0  0  0
   -0.4045    0.3915    0.0623 C   0  0  0  0  0  0  0  0  0  0  0  0
   -0.5788    1.8259    0.2531 C   0  0  0  0  0  0  0  0  0  0  0  0
   -1.3865    2.5716   -0.4874 C   0  0  0  0  0  0  0  0  0  0  0  0
   -4.5481    0.6319    0.7876 H   0  0  0  0  0  0  0  0  0  0  0  0
   -2.9135    1.1363    1.4429 H   0  0  0  0  0  0  0  0  0  0  0  0
   -3.4905   -0.9352   -0.7361 H   0  0  0  0  0  0  0  0  0  0  0  0
   -1.5327   -2.7007   -0.5946 H   0  0  0  0  0  0  0  0  0  0  0  0
    3.0215   -1.2571    0.0108 H   0  0  0  0  0  0  0  0  0  0  0  0
    0.0634    2.2771    0.9961 H   0  0  0  0  0  0  0  0  0  0  0  0
   -1.9921    2.1526   -1.2741 H   0  0  0  0  0  0  0  0  0  0  0  0
   -1.4589    3.6345   -0.3379 H   0  0  0  0  0  0  0  0  0  0  0  0
  1  2  2  0  0  0  0
  2  3  1  0  0  0  0
  3  4  2  0  0  0  0
  4  5  1  0  0  0  0
  5  6  1  0  0  0  0
  6  7  1  0  0  0  0
  7  8  2  0  0  0  0
  7  9  1  0  0  0  0
  3 10  4  0  0  0  0
  6 10  4  0  0  0  0
 10 11  1  0  0  0  0
 11 12  2  0  0  0  0
  1 13  1  0  0  0  0
  1 14  1  0  0  0  0
  2 15  1  0  0  0  0
  4 16  1  0  0  0  0
  9 17  1  0  0  0  0
 11 18  1  0  0  0  0
 12 19  1  0  0  0  0
 12 20  1  0  0  0  0
M  END
