
  xtb     02032211353D
 xtb: 6.4.1 (23d549d)
 25 25  0     0  0            999 V2000
    2.3171   -3.2931   -0.1618 C   0  0  0  0  0  0  0  0  0  0  0  0
    1.0729   -2.8666    0.0216 C   0  0  0  0  0  0  0  0  0  0  0  0
    0.5885   -1.4919    0.0496 C   0  0  0  0  0  0  0  0  0  0  0  0
   -0.7865   -1.2721    0.0590 C   0  0  0  0  0  0  0  0  0  0  0  0
   -1.3431   -0.0016    0.0633 C   0  0  0  0  0  0  0  0  0  0  0  0
   -2.8287    0.0760   -0.0119 C   0  0  0  0  0  0  0  0  0  0  0  0
   -3.5580   -0.7277    0.4996 O   0  0  0  0  0  0  0  0  0  0  0  0
   -3.3345    1.0997   -0.7330 O   0  0  0  0  0  0  0  0  0  0  0  0
   -0.5124    1.1301    0.1286 C   0  0  0  0  0  0  0  0  0  0  0  0
   -1.0453    2.4088    0.1222 N   0  0  0  0  0  0  0  0  0  0  0  0
    0.8824    0.9463    0.1324 C   0  0  0  0  0  0  0  0  0  0  0  0
    1.7855    2.1014    0.2392 C   0  0  0  0  0  0  0  0  0  0  0  0
    2.8628    2.2903   -0.5061 C   0  0  0  0  0  0  0  0  0  0  0  0
    1.3911   -0.3472    0.0761 C   0  0  0  0  0  0  0  0  0  0  0  0
    2.7316   -0.4795    0.1108 F   0  0  0  0  0  0  0  0  0  0  0  0
    2.5372   -4.3473   -0.1666 H   0  0  0  0  0  0  0  0  0  0  0  0
    3.1542   -2.6369   -0.3145 H   0  0  0  0  0  0  0  0  0  0  0  0
    0.2843   -3.5969    0.1554 H   0  0  0  0  0  0  0  0  0  0  0  0
   -1.4628   -2.1135    0.0422 H   0  0  0  0  0  0  0  0  0  0  0  0
   -2.6404    1.6250   -1.1577 H   0  0  0  0  0  0  0  0  0  0  0  0
   -1.9236    2.5268    0.6065 H   0  0  0  0  0  0  0  0  0  0  0  0
   -0.3820    3.1427    0.3197 H   0  0  0  0  0  0  0  0  0  0  0  0
    1.5306    2.8255    1.0065 H   0  0  0  0  0  0  0  0  0  0  0  0
    3.1479    1.6007   -1.2816 H   0  0  0  0  0  0  0  0  0  0  0  0
    3.5002    3.1463   -0.3667 H   0  0  0  0  0  0  0  0  0  0  0  0
  1  2  2  0  0  0  0
  2  3  1  0  0  0  0
  3  4  4  0  0  0  0
  4  5  4  0  0  0  0
  5  6  1  0  0  0  0
  6  7  2  0  0  0  0
  6  8  1  0  0  0  0
  5  9  4  0  0  0  0
  9 10  1  0  0  0  0
  9 11  4  0  0  0  0
 11 12  1  0  0  0  0
 12 13  2  0  0  0  0
  3 14  4  0  0  0  0
 11 14  4  0  0  0  0
 14 15  1  0  0  0  0
  1 16  1  0  0  0  0
  1 17  1  0  0  0  0
  2 18  1  0  0  0  0
  4 19  1  0  0  0  0
  8 20  1  0  0  0  0
 10 21  1  0  0  0  0
 10 22  1  0  0  0  0
 12 23  1  0  0  0  0
 13 24  1  0  0  0  0
 13 25  1  0  0  0  0
M  END
