
 OpenBabel02032210393D

 43 44  0  0  0  0  0  0  0  0999 V2000
    5.0767   -2.7979    1.3673 C   0  0  0  0  0  0  0  0  0  0  0  0
    3.7695   -3.5644    1.5991 C   0  0  0  0  0  0  0  0  0  0  0  0
    4.0469   -4.7687    2.5192 C   0  0  0  0  0  0  0  0  0  0  0  0
    2.8021   -2.7512    2.3244 O   0  0  0  0  0  0  0  0  0  0  0  0
    2.4102   -1.5216    1.8524 C   0  0  0  0  0  0  0  0  0  0  0  0
    1.5606   -0.8340    2.7451 N   0  0  0  0  0  0  0  0  0  0  0  0
    1.3860   -1.3072    4.0814 C   0  0  0  0  0  0  0  0  0  0  0  0
    2.4739   -1.3568    4.9583 C   0  0  0  0  0  0  0  0  0  0  0  0
    2.2850   -1.7364    6.2929 C   0  0  0  0  0  0  0  0  0  0  0  0
    1.0147   -2.0879    6.7750 C   0  0  0  0  0  0  0  0  0  0  0  0
    0.8973   -2.5350    8.1707 C   0  0  0  0  0  0  0  0  0  0  0  0
   -0.1704   -2.4275    8.9689 C   0  0  0  0  0  0  0  0  0  0  0  0
   -1.3142   -1.8480    8.5508 F   0  0  0  0  0  0  0  0  0  0  0  0
   -0.0906   -2.8974   10.2321 F   0  0  0  0  0  0  0  0  0  0  0  0
   -0.0663   -2.0597    5.8848 C   0  0  0  0  0  0  0  0  0  0  0  0
    0.1150   -1.6668    4.5525 C   0  0  0  0  0  0  0  0  0  0  0  0
    0.8897    0.4082    2.4100 C   0  0  0  0  0  0  0  0  0  0  0  0
    0.7272    0.8367    1.0835 C   0  0  0  0  0  0  0  0  0  0  0  0
    0.0364    2.0170    0.7708 C   0  0  0  0  0  0  0  0  0  0  0  0
   -0.5113    2.8019    1.7784 C   0  0  0  0  0  0  0  0  0  0  0  0
   -0.3366    2.4267    3.1026 C   0  0  0  0  0  0  0  0  0  0  0  0
    0.3645    1.2550    3.4112 C   0  0  0  0  0  0  0  0  0  0  0  0
    2.7790   -1.1124    0.7574 O   0  0  0  0  0  0  0  0  0  0  0  0
    3.1977   -4.0999    0.2794 C   0  0  0  0  0  0  0  0  0  0  0  0
    5.3258   -2.1693    2.2283 H   0  0  0  0  0  0  0  0  0  0  0  0
    5.0007   -2.1354    0.4979 H   0  0  0  0  0  0  0  0  0  0  0  0
    5.9153   -3.4743    1.1686 H   0  0  0  0  0  0  0  0  0  0  0  0
    4.1914   -4.4513    3.5575 H   0  0  0  0  0  0  0  0  0  0  0  0
    4.9309   -5.3318    2.1988 H   0  0  0  0  0  0  0  0  0  0  0  0
    3.1980   -5.4633    2.5215 H   0  0  0  0  0  0  0  0  0  0  0  0
    3.4640   -1.0578    4.6237 H   0  0  0  0  0  0  0  0  0  0  0  0
    3.1464   -1.7374    6.9585 H   0  0  0  0  0  0  0  0  0  0  0  0
    1.7871   -2.9940    8.5940 H   0  0  0  0  0  0  0  0  0  0  0  0
   -1.0654   -2.3430    6.2091 H   0  0  0  0  0  0  0  0  0  0  0  0
   -0.7425   -1.6475    3.8840 H   0  0  0  0  0  0  0  0  0  0  0  0
    1.1064    0.2622    0.2444 H   0  0  0  0  0  0  0  0  0  0  0  0
   -0.0776    2.3131   -0.2693 H   0  0  0  0  0  0  0  0  0  0  0  0
   -1.0648    3.7040    1.5327 H   0  0  0  0  0  0  0  0  0  0  0  0
   -0.7429    3.0407    3.9025 H   0  0  0  0  0  0  0  0  0  0  0  0
    0.4991    1.0361    4.4680 H   0  0  0  0  0  0  0  0  0  0  0  0
    3.8775   -4.8314   -0.1742 H   0  0  0  0  0  0  0  0  0  0  0  0
    3.0389   -3.3024   -0.4522 H   0  0  0  0  0  0  0  0  0  0  0  0
    2.2264   -4.5818    0.4358 H   0  0  0  0  0  0  0  0  0  0  0  0
  1  2  1  0  0  0  0
  1 25  1  0  0  0  0
  1 26  1  0  0  0  0
  1 27  1  0  0  0  0
  2  3  1  0  0  0  0
  2  4  1  0  0  0  0
  2 24  1  0  0  0  0
  3 28  1  0  0  0  0
  3 29  1  0  0  0  0
  3 30  1  0  0  0  0
  4  5  1  0  0  0  0
  5  6  1  0  0  0  0
  5 23  2  0  0  0  0
  6  7  1  0  0  0  0
  6 17  1  0  0  0  0
  7  8  1  0  0  0  0
  7 16  2  0  0  0  0
  8  9  2  0  0  0  0
  8 31  1  0  0  0  0
  9 10  1  0  0  0  0
  9 32  1  0  0  0  0
 10 11  1  0  0  0  0
 10 15  2  0  0  0  0
 11 12  2  0  0  0  0
 11 33  1  0  0  0  0
 12 13  1  0  0  0  0
 12 14  1  0  0  0  0
 15 16  1  0  0  0  0
 15 34  1  0  0  0  0
 16 35  1  0  0  0  0
 17 18  1  0  0  0  0
 17 22  2  0  0  0  0
 18 19  2  0  0  0  0
 18 36  1  0  0  0  0
 19 20  1  0  0  0  0
 19 37  1  0  0  0  0
 20 21  2  0  0  0  0
 20 38  1  0  0  0  0
 21 22  1  0  0  0  0
 21 39  1  0  0  0  0
 22 40  1  0  0  0  0
 24 41  1  0  0  0  0
 24 42  1  0  0  0  0
 24 43  1  0  0  0  0
M  END
