
 OpenBabel02032211023D

 27 27  0  0  0  0  0  0  0  0999 V2000
    2.6420   -1.1970    0.4141 C   0  0  0  0  0  0  0  0  0  0  0  0
    2.2767    0.0239    0.0058 C   0  0  0  0  0  0  0  0  0  0  0  0
    3.0128    1.2311    0.3885 C   0  0  0  0  0  0  0  0  0  0  0  0
    4.0904    1.6554   -0.3962 C   0  0  0  0  0  0  0  0  0  0  0  0
    4.8180    2.8162   -0.0742 C   0  0  0  0  0  0  0  0  0  0  0  0
    5.9311    3.2201   -0.9542 C   0  0  0  0  0  0  0  0  0  0  0  0
    6.7547    2.3723   -1.5888 C   0  0  0  0  0  0  0  0  0  0  0  0
    4.3702    3.5340    1.0476 C   0  0  0  0  0  0  0  0  0  0  0  0
    4.9941    4.8371    1.4919 C   0  0  0  0  0  0  0  0  0  0  0  0
    5.9127    5.4234    0.9396 O   0  0  0  0  0  0  0  0  0  0  0  0
    4.3631    5.2835    2.6145 O   0  0  0  0  0  0  0  0  0  0  0  0
    4.8315    6.5301    3.1250 C   0  0  0  0  0  0  0  0  0  0  0  0
    3.3284    3.1176    1.8346 N   0  0  0  0  0  0  0  0  0  0  0  0
    2.6835    1.9886    1.5113 C   0  0  0  0  0  0  0  0  0  0  0  0
    1.6157    1.6547    2.3436 N   0  0  0  0  0  0  0  0  0  0  0  0
    2.0674   -2.0689    0.1167 H   0  0  0  0  0  0  0  0  0  0  0  0
    3.5063   -1.3590    1.0510 H   0  0  0  0  0  0  0  0  0  0  0  0
    1.4020    0.1741   -0.6211 H   0  0  0  0  0  0  0  0  0  0  0  0
    4.3464    1.0757   -1.2816 H   0  0  0  0  0  0  0  0  0  0  0  0
    6.0964    4.2868   -1.0871 H   0  0  0  0  0  0  0  0  0  0  0  0
    6.6774    1.2932   -1.5059 H   0  0  0  0  0  0  0  0  0  0  0  0
    7.5547    2.7563   -2.2162 H   0  0  0  0  0  0  0  0  0  0  0  0
    4.1242    6.8678    3.8884 H   0  0  0  0  0  0  0  0  0  0  0  0
    4.8756    7.2915    2.3398 H   0  0  0  0  0  0  0  0  0  0  0  0
    5.8106    6.3959    3.5933 H   0  0  0  0  0  0  0  0  0  0  0  0
    1.6285    2.2990    3.1300 H   0  0  0  0  0  0  0  0  0  0  0  0
    1.6608    0.6845    2.6337 H   0  0  0  0  0  0  0  0  0  0  0  0
  1  2  2  0  0  0  0
  1 16  1  0  0  0  0
  1 17  1  0  0  0  0
  2  3  1  0  0  0  0
  2 18  1  0  0  0  0
  3  4  1  0  0  0  0
  3 14  2  0  0  0  0
  4  5  2  0  0  0  0
  4 19  1  0  0  0  0
  5  6  1  0  0  0  0
  5  8  1  0  0  0  0
  6  7  2  0  0  0  0
  6 20  1  0  0  0  0
  7 21  1  0  0  0  0
  7 22  1  0  0  0  0
  8  9  1  0  0  0  0
  8 13  2  0  0  0  0
  9 10  2  0  0  0  0
  9 11  1  0  0  0  0
 11 12  1  0  0  0  0
 12 23  1  0  0  0  0
 12 24  1  0  0  0  0
 12 25  1  0  0  0  0
 13 14  1  0  0  0  0
 14 15  1  0  0  0  0
 15 26  1  0  0  0  0
 15 27  1  0  0  0  0
M  END
