43

C          2.83838        0.68370        1.17877
O          2.49890       -0.22100        0.19430
C          3.13310       -1.39600       -0.05560
C          4.23410       -1.73760        0.74880
C          4.89450       -2.93810        0.49520
C          5.97420       -3.51410        1.11610
C          6.75130       -3.07330        2.18650
C          7.83380       -3.87020        2.59990
O          8.59330       -3.43270        3.63810
C          9.69372       -4.08334        4.15645
C          8.10500       -5.08720        1.91920
C          7.30360       -5.50720        0.84470
C          6.21940       -4.70430        0.46150
N          5.32490       -4.89510       -0.55350
C          5.27040       -6.01400       -1.47560
C          6.20213       -7.06716       -1.39098
C          6.16553       -8.13168       -2.29526
C          5.19804       -8.16640       -3.30759
C          5.15846       -9.29459       -4.29541
C          4.26166       -7.12923       -3.39684
C          4.29503       -6.06618       -2.48988
C          4.51530       -3.79510       -0.51920
C          3.40710       -3.48790       -1.32190
C          2.72120       -2.28230       -1.08830
H          2.13456        1.54042        1.14168
H          3.86875        1.06393        1.01314
H          2.76276        0.20748        2.17968
H          4.55970       -1.08190        1.54650
H          6.53410       -2.13590        2.68240
H         10.10941       -3.48516        4.99242
H         10.47755       -4.19289        3.37604
H          9.40163       -5.08216        4.54522
H          8.93860       -5.71240        2.20840
H          7.55730       -6.42450        0.33950
H          6.95102       -7.08599       -0.61279
H          6.89480       -8.92725       -2.20363
H          5.96298      -10.03543       -4.10060
H          5.29434       -8.89329       -5.32206
H          4.17884       -9.81288       -4.23402
H          3.51030       -7.13872       -4.17690
H          3.57560       -5.26974       -2.61115
H          3.05570       -4.14500       -2.10140
H          1.86980       -2.04820       -1.71310
43

C          3.08363        0.91468        0.71510
O          2.49890       -0.22100        0.19430
C          3.13310       -1.39600       -0.05560
C          4.23410       -1.73760        0.74880
C          4.89450       -2.93810        0.49520
C          5.97420       -3.51410        1.11610
C          6.75130       -3.07330        2.18650
C          7.83380       -3.87020        2.59990
O          8.59330       -3.43270        3.63810
C          8.39738       -2.25906        4.33604
C          8.10500       -5.08720        1.91920
C          7.30360       -5.50720        0.84470
C          6.21940       -4.70430        0.46150
N          5.32490       -4.89510       -0.55350
C          5.27040       -6.01400       -1.47560
C          5.71324       -7.29365       -1.08726
C          5.68486       -8.36514       -1.98356
C          5.21580       -8.18130       -3.29056
C          5.19617       -9.31907       -4.26794
C          4.76559       -6.91573       -3.68569
C          4.78967       -5.84441       -2.78822
C          4.51530       -3.79510       -0.51920
C          3.40710       -3.48790       -1.32190
C          2.72120       -2.28230       -1.08830
H          2.31315        1.70698        0.81175
H          3.88480        1.27997        0.03808
H          3.50126        0.70328        1.72268
H          4.55970       -1.08190        1.54650
H          6.53410       -2.13590        2.68240
H          9.16859       -2.17402        5.12816
H          7.39528       -2.26134        4.81692
H          8.49040       -1.38670        3.65455
H          8.93860       -5.71240        2.20840
H          7.55730       -6.42450        0.33950
H          6.06382       -7.47969       -0.08264
H          6.03101       -9.33741       -1.65487
H          5.58612      -10.25435       -3.81269
H          5.83039       -9.06621       -5.14392
H          4.15650       -9.50053       -4.61170
H          4.40455       -6.75590       -4.69427
H          4.46357       -4.87682       -3.14041
H          3.05570       -4.14500       -2.10140
H          1.86980       -2.04820       -1.71310
43

C          2.40584        0.39819        1.42346
O          2.49890       -0.22100        0.19430
C          3.13310       -1.39600       -0.05560
C          4.23410       -1.73760        0.74880
C          4.89450       -2.93810        0.49520
C          5.97420       -3.51410        1.11610
C          6.75130       -3.07330        2.18650
C          7.83380       -3.87020        2.59990
O          8.59330       -3.43270        3.63810
C          8.81412       -2.11187        3.96915
C          8.10500       -5.08720        1.91920
C          7.30360       -5.50720        0.84470
C          6.21940       -4.70430        0.46150
N          5.32490       -4.89510       -0.55350
C          5.27040       -6.01400       -1.47560
C          4.04457       -6.44204       -2.02199
C          3.98891       -7.53580       -2.88967
C          5.15770       -8.22929       -3.22890
C          5.10957       -9.41571       -4.14556
C          6.38313       -7.80824       -2.69830
C          6.44009       -6.71148       -1.83364
C          4.51530       -3.79510       -0.51920
C          3.40710       -3.48790       -1.32190
C          2.72120       -2.28230       -1.08830
H          1.82302        1.33572        1.31353
H          3.41795        0.65245        1.80379
H          1.88028       -0.26175        2.14637
H          4.55970       -1.08190        1.54650
H          6.53410       -2.13590        2.68240
H          9.46819       -2.06559        4.86330
H          7.85160       -1.61028        4.20874
H          9.31950       -1.58523        3.13168
H          8.93860       -5.71240        2.20840
H          7.55730       -6.42450        0.33950
H          3.12459       -5.92148       -1.79968
H          3.03146       -7.84012       -3.29444
H          4.07228       -9.63057       -4.48013
H          5.49761      -10.31055       -3.61434
H          5.73672       -9.22370       -5.04102
H          7.29526       -8.33682       -2.94680
H          7.39963       -6.43720       -1.42054
H          3.05570       -4.14500       -2.10140
H          1.86980       -2.04820       -1.71310
43

C          2.83838        0.68370        1.17877
O          2.49890       -0.22100        0.19430
C          3.13310       -1.39600       -0.05560
C          4.23410       -1.73760        0.74880
C          4.89450       -2.93810        0.49520
C          5.97420       -3.51410        1.11610
C          6.75130       -3.07330        2.18650
C          7.83380       -3.87020        2.59990
O          8.59330       -3.43270        3.63810
C          8.14926       -2.64595        4.68059
C          8.10500       -5.08720        1.91920
C          7.30360       -5.50720        0.84470
C          6.21940       -4.70430        0.46150
N          5.32490       -4.89510       -0.55350
C          5.27040       -6.01400       -1.47560
C          5.71324       -7.29365       -1.08726
C          5.68486       -8.36514       -1.98356
C          5.21580       -8.18130       -3.29056
C          5.19617       -9.31907       -4.26794
C          4.76559       -6.91573       -3.68569
C          4.78967       -5.84441       -2.78822
C          4.51530       -3.79510       -0.51920
C          3.40710       -3.48790       -1.32190
C          2.72120       -2.28230       -1.08830
H          2.13456        1.54042        1.14168
H          3.86875        1.06393        1.01314
H          2.76276        0.20748        2.17968
H          4.55970       -1.08190        1.54650
H          6.53410       -2.13590        2.68240
H          8.99138       -2.45473        5.37610
H          7.34165       -3.16781        5.23815
H          7.77809       -1.67211        4.29592
H          8.93860       -5.71240        2.20840
H          7.55730       -6.42450        0.33950
H          6.06382       -7.47969       -0.08264
H          6.03101       -9.33741       -1.65487
H          5.58612      -10.25435       -3.81269
H          5.83039       -9.06621       -5.14392
H          4.15650       -9.50053       -4.61170
H          4.40455       -6.75590       -4.69427
H          4.46357       -4.87682       -3.14041
H          3.05570       -4.14500       -2.10140
H          1.86980       -2.04820       -1.71310
43

C          2.83838        0.68370        1.17877
O          2.49890       -0.22100        0.19430
C          3.13310       -1.39600       -0.05560
C          4.23410       -1.73760        0.74880
C          4.89450       -2.93810        0.49520
C          5.97420       -3.51410        1.11610
C          6.75130       -3.07330        2.18650
C          7.83380       -3.87020        2.59990
O          8.59330       -3.43270        3.63810
C          8.14926       -2.64595        4.68059
C          8.10500       -5.08720        1.91920
C          7.30360       -5.50720        0.84470
C          6.21940       -4.70430        0.46150
N          5.32490       -4.89510       -0.55350
C          5.27040       -6.01400       -1.47560
C          6.20213       -7.06716       -1.39098
C          6.16553       -8.13168       -2.29526
C          5.19804       -8.16640       -3.30759
C          5.15846       -9.29459       -4.29541
C          4.26166       -7.12923       -3.39684
C          4.29503       -6.06618       -2.48988
C          4.51530       -3.79510       -0.51920
C          3.40710       -3.48790       -1.32190
C          2.72120       -2.28230       -1.08830
H          2.13456        1.54042        1.14168
H          3.86875        1.06393        1.01314
H          2.76276        0.20748        2.17968
H          4.55970       -1.08190        1.54650
H          6.53410       -2.13590        2.68240
H          8.99138       -2.45473        5.37610
H          7.34165       -3.16781        5.23815
H          7.77809       -1.67211        4.29592
H          8.93860       -5.71240        2.20840
H          7.55730       -6.42450        0.33950
H          6.95102       -7.08599       -0.61279
H          6.89480       -8.92725       -2.20363
H          5.96298      -10.03543       -4.10060
H          5.29434       -8.89329       -5.32206
H          4.17884       -9.81288       -4.23402
H          3.51030       -7.13872       -4.17690
H          3.57560       -5.26974       -2.61115
H          3.05570       -4.14500       -2.10140
H          1.86980       -2.04820       -1.71310
43

C          2.83838        0.68370        1.17877
O          2.49890       -0.22100        0.19430
C          3.13310       -1.39600       -0.05560
C          4.23410       -1.73760        0.74880
C          4.89450       -2.93810        0.49520
C          5.97420       -3.51410        1.11610
C          6.75130       -3.07330        2.18650
C          7.83380       -3.87020        2.59990
O          8.59330       -3.43270        3.63810
C          8.39738       -2.25906        4.33604
C          8.10500       -5.08720        1.91920
C          7.30360       -5.50720        0.84470
C          6.21940       -4.70430        0.46150
N          5.32490       -4.89510       -0.55350
C          5.27040       -6.01400       -1.47560
C          4.04457       -6.44204       -2.02199
C          3.98891       -7.53580       -2.88967
C          5.15770       -8.22929       -3.22890
C          5.10957       -9.41571       -4.14556
C          6.38313       -7.80824       -2.69830
C          6.44009       -6.71148       -1.83364
C          4.51530       -3.79510       -0.51920
C          3.40710       -3.48790       -1.32190
C          2.72120       -2.28230       -1.08830
H          2.13456        1.54042        1.14168
H          3.86875        1.06393        1.01314
H          2.76276        0.20748        2.17968
H          4.55970       -1.08190        1.54650
H          6.53410       -2.13590        2.68240
H          9.16859       -2.17402        5.12816
H          7.39528       -2.26134        4.81692
H          8.49040       -1.38670        3.65455
H          8.93860       -5.71240        2.20840
H          7.55730       -6.42450        0.33950
H          3.12459       -5.92148       -1.79968
H          3.03146       -7.84012       -3.29444
H          4.07228       -9.63057       -4.48013
H          5.49761      -10.31055       -3.61434
H          5.73672       -9.22370       -5.04102
H          7.29526       -8.33682       -2.94680
H          7.39963       -6.43720       -1.42054
H          3.05570       -4.14500       -2.10140
H          1.86980       -2.04820       -1.71310
43

C          2.83838        0.68370        1.17877
O          2.49890       -0.22100        0.19430
C          3.13310       -1.39600       -0.05560
C          4.23410       -1.73760        0.74880
C          4.89450       -2.93810        0.49520
C          5.97420       -3.51410        1.11610
C          6.75130       -3.07330        2.18650
C          7.83380       -3.87020        2.59990
O          8.59330       -3.43270        3.63810
C          8.81412       -2.11187        3.96915
C          8.10500       -5.08720        1.91920
C          7.30360       -5.50720        0.84470
C          6.21940       -4.70430        0.46150
N          5.32490       -4.89510       -0.55350
C          5.27040       -6.01400       -1.47560
C          6.20213       -7.06716       -1.39098
C          6.16553       -8.13168       -2.29526
C          5.19804       -8.16640       -3.30759
C          5.15846       -9.29459       -4.29541
C          4.26166       -7.12923       -3.39684
C          4.29503       -6.06618       -2.48988
C          4.51530       -3.79510       -0.51920
C          3.40710       -3.48790       -1.32190
C          2.72120       -2.28230       -1.08830
H          2.13456        1.54042        1.14168
H          3.86875        1.06393        1.01314
H          2.76276        0.20748        2.17968
H          4.55970       -1.08190        1.54650
H          6.53410       -2.13590        2.68240
H          9.46819       -2.06559        4.86330
H          7.85160       -1.61028        4.20874
H          9.31950       -1.58523        3.13168
H          8.93860       -5.71240        2.20840
H          7.55730       -6.42450        0.33950
H          6.95102       -7.08599       -0.61279
H          6.89480       -8.92725       -2.20363
H          5.96298      -10.03543       -4.10060
H          5.29434       -8.89329       -5.32206
H          4.17884       -9.81288       -4.23402
H          3.51030       -7.13872       -4.17690
H          3.57560       -5.26974       -2.61115
H          3.05570       -4.14500       -2.10140
H          1.86980       -2.04820       -1.71310
43

C          2.40584        0.39819        1.42346
O          2.49890       -0.22100        0.19430
C          3.13310       -1.39600       -0.05560
C          4.23410       -1.73760        0.74880
C          4.89450       -2.93810        0.49520
C          5.97420       -3.51410        1.11610
C          6.75130       -3.07330        2.18650
C          7.83380       -3.87020        2.59990
O          8.59330       -3.43270        3.63810
C          8.81412       -2.11187        3.96915
C          8.10500       -5.08720        1.91920
C          7.30360       -5.50720        0.84470
C          6.21940       -4.70430        0.46150
N          5.32490       -4.89510       -0.55350
C          5.27040       -6.01400       -1.47560
C          6.20213       -7.06716       -1.39098
C          6.16553       -8.13168       -2.29526
C          5.19804       -8.16640       -3.30759
C          5.15846       -9.29459       -4.29541
C          4.26166       -7.12923       -3.39684
C          4.29503       -6.06618       -2.48988
C          4.51530       -3.79510       -0.51920
C          3.40710       -3.48790       -1.32190
C          2.72120       -2.28230       -1.08830
H          1.82302        1.33572        1.31353
H          3.41795        0.65245        1.80379
H          1.88028       -0.26175        2.14637
H          4.55970       -1.08190        1.54650
H          6.53410       -2.13590        2.68240
H          9.46819       -2.06559        4.86330
H          7.85160       -1.61028        4.20874
H          9.31950       -1.58523        3.13168
H          8.93860       -5.71240        2.20840
H          7.55730       -6.42450        0.33950
H          6.95102       -7.08599       -0.61279
H          6.89480       -8.92725       -2.20363
H          5.96298      -10.03543       -4.10060
H          5.29434       -8.89329       -5.32206
H          4.17884       -9.81288       -4.23402
H          3.51030       -7.13872       -4.17690
H          3.57560       -5.26974       -2.61115
H          3.05570       -4.14500       -2.10140
H          1.86980       -2.04820       -1.71310
43

C          3.08363        0.91468        0.71510
O          2.49890       -0.22100        0.19430
C          3.13310       -1.39600       -0.05560
C          4.23410       -1.73760        0.74880
C          4.89450       -2.93810        0.49520
C          5.97420       -3.51410        1.11610
C          6.75130       -3.07330        2.18650
C          7.83380       -3.87020        2.59990
O          8.59330       -3.43270        3.63810
C          8.39738       -2.25906        4.33604
C          8.10500       -5.08720        1.91920
C          7.30360       -5.50720        0.84470
C          6.21940       -4.70430        0.46150
N          5.32490       -4.89510       -0.55350
C          5.27040       -6.01400       -1.47560
C          6.20213       -7.06716       -1.39098
C          6.16553       -8.13168       -2.29526
C          5.19804       -8.16640       -3.30759
C          5.15846       -9.29459       -4.29541
C          4.26166       -7.12923       -3.39684
C          4.29503       -6.06618       -2.48988
C          4.51530       -3.79510       -0.51920
C          3.40710       -3.48790       -1.32190
C          2.72120       -2.28230       -1.08830
H          2.31315        1.70698        0.81175
H          3.88480        1.27997        0.03808
H          3.50126        0.70328        1.72268
H          4.55970       -1.08190        1.54650
H          6.53410       -2.13590        2.68240
H          9.16859       -2.17402        5.12816
H          7.39528       -2.26134        4.81692
H          8.49040       -1.38670        3.65455
H          8.93860       -5.71240        2.20840
H          7.55730       -6.42450        0.33950
H          6.95102       -7.08599       -0.61279
H          6.89480       -8.92725       -2.20363
H          5.96298      -10.03543       -4.10060
H          5.29434       -8.89329       -5.32206
H          4.17884       -9.81288       -4.23402
H          3.51030       -7.13872       -4.17690
H          3.57560       -5.26974       -2.61115
H          3.05570       -4.14500       -2.10140
H          1.86980       -2.04820       -1.71310
43

C          2.83838        0.68370        1.17877
O          2.49890       -0.22100        0.19430
C          3.13310       -1.39600       -0.05560
C          4.23410       -1.73760        0.74880
C          4.89450       -2.93810        0.49520
C          5.97420       -3.51410        1.11610
C          6.75130       -3.07330        2.18650
C          7.83380       -3.87020        2.59990
O          8.59330       -3.43270        3.63810
C          8.39738       -2.25906        4.33604
C          8.10500       -5.08720        1.91920
C          7.30360       -5.50720        0.84470
C          6.21940       -4.70430        0.46150
N          5.32490       -4.89510       -0.55350
C          5.27040       -6.01400       -1.47560
C          5.71324       -7.29365       -1.08726
C          5.68486       -8.36514       -1.98356
C          5.21580       -8.18130       -3.29056
C          5.19617       -9.31907       -4.26794
C          4.76559       -6.91573       -3.68569
C          4.78967       -5.84441       -2.78822
C          4.51530       -3.79510       -0.51920
C          3.40710       -3.48790       -1.32190
C          2.72120       -2.28230       -1.08830
H          2.13456        1.54042        1.14168
H          3.86875        1.06393        1.01314
H          2.76276        0.20748        2.17968
H          4.55970       -1.08190        1.54650
H          6.53410       -2.13590        2.68240
H          9.16859       -2.17402        5.12816
H          7.39528       -2.26134        4.81692
H          8.49040       -1.38670        3.65455
H          8.93860       -5.71240        2.20840
H          7.55730       -6.42450        0.33950
H          6.06382       -7.47969       -0.08264
H          6.03101       -9.33741       -1.65487
H          5.58612      -10.25435       -3.81269
H          5.83039       -9.06621       -5.14392
H          4.15650       -9.50053       -4.61170
H          4.40455       -6.75590       -4.69427
H          4.46357       -4.87682       -3.14041
H          3.05570       -4.14500       -2.10140
H          1.86980       -2.04820       -1.71310
