
 OpenBabel02012213453D

 15 15  0  0  0  0  0  0  0  0999 V2000
    1.0407   -0.2028    0.0071 C   0  0  0  0  0  0  0  0  0  0  0  0
    2.5052   -0.0042    0.0039 C   0  0  0  0  0  0  0  0  0  0  0  0
    3.3266    1.1101    0.0081 C   0  0  0  0  0  0  0  0  0  0  0  0
    2.9313    2.5394    0.0184 C   0  0  0  0  0  0  0  0  0  0  0  0
    4.6572    0.6014    0.0001 C   0  0  0  0  0  0  0  0  0  0  0  0
    4.5541   -0.7690   -0.0078 C   0  0  0  0  0  0  0  0  0  0  0  0
    3.2519   -1.1440   -0.0052 O   0  0  0  0  0  0  0  0  0  0  0  0
    0.5045    0.7501    0.0083 H   0  0  0  0  0  0  0  0  0  0  0  0
    0.7342   -0.7638    0.8955 H   0  0  0  0  0  0  0  0  0  0  0  0
    0.7303   -0.7637   -0.8798 H   0  0  0  0  0  0  0  0  0  0  0  0
    1.8448    2.6636    0.0274 H   0  0  0  0  0  0  0  0  0  0  0  0
    3.3203    3.0477   -0.8699 H   0  0  0  0  0  0  0  0  0  0  0  0
    3.3337    3.0390    0.9058 H   0  0  0  0  0  0  0  0  0  0  0  0
    5.5778    1.1678    0.0002 H   0  0  0  0  0  0  0  0  0  0  0  0
    5.2737   -1.5753   -0.0150 H   0  0  0  0  0  0  0  0  0  0  0  0
  1  2  1  0  0  0  0
  1  8  1  0  0  0  0
  1  9  1  0  0  0  0
  1 10  1  0  0  0  0
  2  3  2  0  0  0  0
  2  7  1  0  0  0  0
  3  4  1  0  0  0  0
  3  5  1  0  0  0  0
  4 11  1  0  0  0  0
  4 12  1  0  0  0  0
  4 13  1  0  0  0  0
  5  6  2  0  0  0  0
  5 14  1  0  0  0  0
  6  7  1  0  0  0  0
  6 15  1  0  0  0  0
M  END
