
  xtb     02032211353D
 xtb: 6.4.1 (23d549d)
 31 33  0     0  0            999 V2000
   -5.9200    2.3928   -0.0505 C   0  0  0  0  0  0  0  0  0  0  0  0
   -6.0089    1.0651   -0.0297 C   0  0  0  0  0  0  0  0  0  0  0  0
   -4.8916    0.1646   -0.0115 C   0  0  0  0  0  0  0  0  0  0  0  0
   -4.9344   -1.2092    0.0102 C   0  0  0  0  0  0  0  0  0  0  0  0
   -3.6733   -1.8122    0.0242 C   0  0  0  0  0  0  0  0  0  0  0  0
   -2.6379   -0.9039    0.0136 C   0  0  0  0  0  0  0  0  0  0  0  0
   -1.2386   -1.1692    0.0225 C   0  0  0  0  0  0  0  0  0  0  0  0
   -0.6066   -2.3937    0.0488 C   0  0  0  0  0  0  0  0  0  0  0  0
    0.7861   -2.3013    0.0498 C   0  0  0  0  0  0  0  0  0  0  0  0
    1.2505   -1.0039    0.0241 C   0  0  0  0  0  0  0  0  0  0  0  0
    2.6023   -0.5559    0.0167 C   0  0  0  0  0  0  0  0  0  0  0  0
    3.7500   -1.3190    0.0345 C   0  0  0  0  0  0  0  0  0  0  0  0
    4.9225   -0.5592    0.0190 C   0  0  0  0  0  0  0  0  0  0  0  0
    4.7004    0.7974   -0.0109 C   0  0  0  0  0  0  0  0  0  0  0  0
    5.6347    1.8890   -0.0344 C   0  0  0  0  0  0  0  0  0  0  0  0
    6.9607    1.7676   -0.0325 C   0  0  0  0  0  0  0  0  0  0  0  0
    2.9945    1.1359   -0.0197 S   0  0  0  0  0  0  0  0  0  0  0  0
   -0.0745    0.1224   -0.0014 S   0  0  0  0  0  0  0  0  0  0  0  0
   -3.2455    0.7251   -0.0146 S   0  0  0  0  0  0  0  0  0  0  0  0
   -6.7945    3.0184   -0.0633 H   0  0  0  0  0  0  0  0  0  0  0  0
   -4.9642    2.8905   -0.0549 H   0  0  0  0  0  0  0  0  0  0  0  0
   -6.9775    0.5807   -0.0253 H   0  0  0  0  0  0  0  0  0  0  0  0
   -5.8576   -1.7619    0.0154 H   0  0  0  0  0  0  0  0  0  0  0  0
   -3.5218   -2.8762    0.0414 H   0  0  0  0  0  0  0  0  0  0  0  0
   -1.1385   -3.3275    0.0671 H   0  0  0  0  0  0  0  0  0  0  0  0
    1.4367   -3.1566    0.0687 H   0  0  0  0  0  0  0  0  0  0  0  0
    3.7384   -2.3936    0.0580 H   0  0  0  0  0  0  0  0  0  0  0  0
    5.9056   -0.9938    0.0294 H   0  0  0  0  0  0  0  0  0  0  0  0
    5.1854    2.8735   -0.0551 H   0  0  0  0  0  0  0  0  0  0  0  0
    7.4491    0.8090   -0.0124 H   0  0  0  0  0  0  0  0  0  0  0  0
    7.6001    2.6321   -0.0512 H   0  0  0  0  0  0  0  0  0  0  0  0
  1  2  2  0  0  0  0
  2  3  1  0  0  0  0
  3  4  4  0  0  0  0
  4  5  4  0  0  0  0
  5  6  4  0  0  0  0
  6  7  1  0  0  0  0
  7  8  4  0  0  0  0
  8  9  4  0  0  0  0
  9 10  4  0  0  0  0
 10 11  1  0  0  0  0
 11 12  4  0  0  0  0
 12 13  4  0  0  0  0
 13 14  4  0  0  0  0
 14 15  1  0  0  0  0
 15 16  2  0  0  0  0
 11 17  1  0  0  0  0
 14 17  1  0  0  0  0
  7 18  1  0  0  0  0
 10 18  1  0  0  0  0
  3 19  1  0  0  0  0
  6 19  1  0  0  0  0
  1 20  1  0  0  0  0
  1 21  1  0  0  0  0
  2 22  1  0  0  0  0
  4 23  1  0  0  0  0
  5 24  1  0  0  0  0
  8 25  1  0  0  0  0
  9 26  1  0  0  0  0
 12 27  1  0  0  0  0
 13 28  1  0  0  0  0
 15 29  1  0  0  0  0
 16 30  1  0  0  0  0
 16 31  1  0  0  0  0
M  END
