
  xtb     02032211353D
 xtb: 6.4.1 (23d549d)
 26 26  0     0  0            999 V2000
    3.2450   -2.9841    0.4322 C   0  0  0  0  0  0  0  0  0  0  0  0
    3.1959   -1.8006   -0.1636 C   0  0  0  0  0  0  0  0  0  0  0  0
    2.0563   -0.8848   -0.1140 C   0  0  0  0  0  0  0  0  0  0  0  0
    0.7663   -1.3956   -0.0759 C   0  0  0  0  0  0  0  0  0  0  0  0
   -0.3262   -0.5473   -0.0675 C   0  0  0  0  0  0  0  0  0  0  0  0
   -1.5869   -1.1963   -0.0355 O   0  0  0  0  0  0  0  0  0  0  0  0
   -2.6883   -0.4926    0.0318 C   0  0  0  0  0  0  0  0  0  0  0  0
   -2.7713    0.3270    1.0992 F   0  0  0  0  0  0  0  0  0  0  0  0
   -2.9185    0.2990   -1.0364 F   0  0  0  0  0  0  0  0  0  0  0  0
   -3.7289   -1.3197    0.1121 F   0  0  0  0  0  0  0  0  0  0  0  0
   -0.1596    0.8208   -0.1167 C   0  0  0  0  0  0  0  0  0  0  0  0
    1.1225    1.3644   -0.1500 C   0  0  0  0  0  0  0  0  0  0  0  0
    1.2773    2.8165   -0.2327 C   0  0  0  0  0  0  0  0  0  0  0  0
    0.4696    3.6999    0.3382 C   0  0  0  0  0  0  0  0  0  0  0  0
    2.2462    0.5145   -0.1296 C   0  0  0  0  0  0  0  0  0  0  0  0
    3.5055    1.0396   -0.0091 N   0  0  0  0  0  0  0  0  0  0  0  0
    4.1025   -3.6281    0.3393 H   0  0  0  0  0  0  0  0  0  0  0  0
    2.4398   -3.3452    1.0484 H   0  0  0  0  0  0  0  0  0  0  0  0
    4.0472   -1.4757   -0.7516 H   0  0  0  0  0  0  0  0  0  0  0  0
    0.5995   -2.4594   -0.0786 H   0  0  0  0  0  0  0  0  0  0  0  0
   -0.9989    1.4951   -0.1546 H   0  0  0  0  0  0  0  0  0  0  0  0
    2.1112    3.1769   -0.8252 H   0  0  0  0  0  0  0  0  0  0  0  0
   -0.3583    3.3999    0.9575 H   0  0  0  0  0  0  0  0  0  0  0  0
    0.6181    4.7593    0.2198 H   0  0  0  0  0  0  0  0  0  0  0  0
    3.6330    2.0147   -0.2155 H   0  0  0  0  0  0  0  0  0  0  0  0
    4.2888    0.4380   -0.1933 H   0  0  0  0  0  0  0  0  0  0  0  0
  1  2  2  0  0  0  0
  2  3  1  0  0  0  0
  3  4  4  0  0  0  0
  4  5  4  0  0  0  0
  5  6  1  0  0  0  0
  6  7  1  0  0  0  0
  7  8  1  0  0  0  0
  7  9  1  0  0  0  0
  7 10  1  0  0  0  0
  5 11  4  0  0  0  0
 11 12  4  0  0  0  0
 12 13  1  0  0  0  0
 13 14  2  0  0  0  0
  3 15  4  0  0  0  0
 12 15  4  0  0  0  0
 15 16  1  0  0  0  0
  1 17  1  0  0  0  0
  1 18  1  0  0  0  0
  2 19  1  0  0  0  0
  4 20  1  0  0  0  0
 11 21  1  0  0  0  0
 13 22  1  0  0  0  0
 14 23  1  0  0  0  0
 14 24  1  0  0  0  0
 16 25  1  0  0  0  0
 16 26  1  0  0  0  0
M  END
