
  xtb     02032211353D
 xtb: 6.4.1 (23d549d)
 23 23  0     0  0            999 V2000
   -4.1704   -1.1703   -0.2216 C   0  0  0  0  0  0  0  0  0  0  0  0
   -3.2769   -0.2054   -0.0443 C   0  0  0  0  0  0  0  0  0  0  0  0
   -1.8276   -0.3670    0.0065 C   0  0  0  0  0  0  0  0  0  0  0  0
   -1.1784   -1.6067   -0.0234 C   0  0  0  0  0  0  0  0  0  0  0  0
    0.2008   -1.6258   -0.0235 C   0  0  0  0  0  0  0  0  0  0  0  0
    0.9126   -0.4296    0.0200 C   0  0  0  0  0  0  0  0  0  0  0  0
    2.4012   -0.5042   -0.0440 C   0  0  0  0  0  0  0  0  0  0  0  0
    2.9749    0.3657   -0.9137 N   0  0  0  0  0  0  0  0  0  0  0  0
    3.0499   -1.3020    0.5972 O   0  0  0  0  0  0  0  0  0  0  0  0
    0.1801    0.7655    0.1368 C   0  0  0  0  0  0  0  0  0  0  0  0
    0.8304    2.0592    0.3445 C   0  0  0  0  0  0  0  0  0  0  0  0
    0.2012    3.2164    0.1835 C   0  0  0  0  0  0  0  0  0  0  0  0
   -1.1462    0.7685    0.1070 N   0  0  0  0  0  0  0  0  0  0  0  0
   -5.2253   -0.9568   -0.2469 H   0  0  0  0  0  0  0  0  0  0  0  0
   -3.8968   -2.2040   -0.3504 H   0  0  0  0  0  0  0  0  0  0  0  0
   -3.5965    0.8214    0.0711 H   0  0  0  0  0  0  0  0  0  0  0  0
   -1.7391   -2.5265   -0.0471 H   0  0  0  0  0  0  0  0  0  0  0  0
    0.7483   -2.5565   -0.0624 H   0  0  0  0  0  0  0  0  0  0  0  0
    2.4329    0.9926   -1.4807 H   0  0  0  0  0  0  0  0  0  0  0  0
    3.9740    0.3372   -1.0339 H   0  0  0  0  0  0  0  0  0  0  0  0
    1.8632    2.0267    0.6633 H   0  0  0  0  0  0  0  0  0  0  0  0
   -0.8282    3.2389   -0.1298 H   0  0  0  0  0  0  0  0  0  0  0  0
    0.6883    4.1597    0.3610 H   0  0  0  0  0  0  0  0  0  0  0  0
  1  2  2  0  0  0  0
  2  3  1  0  0  0  0
  3  4  4  0  0  0  0
  4  5  4  0  0  0  0
  5  6  4  0  0  0  0
  6  7  1  0  0  0  0
  7  8  4  0  0  0  0
  7  9  2  0  0  0  0
  6 10  4  0  0  0  0
 10 11  1  0  0  0  0
 11 12  2  0  0  0  0
  3 13  4  0  0  0  0
 10 13  4  0  0  0  0
  1 14  1  0  0  0  0
  1 15  1  0  0  0  0
  2 16  1  0  0  0  0
  4 17  1  0  0  0  0
  5 18  1  0  0  0  0
  8 19  1  0  0  0  0
  8 20  1  0  0  0  0
 11 21  1  0  0  0  0
 12 22  1  0  0  0  0
 12 23  1  0  0  0  0
M  END
