
 OpenBabel02012214053D

 20 20  0  0  0  0  0  0  0  0999 V2000
    1.0079   -0.0788   -0.0750 C   0  0  0  0  0  0  0  0  0  0  0  0
    2.5026   -0.0710   -0.0726 C   0  0  0  0  0  0  0  0  0  0  0  0
    3.2256    1.1108   -0.0713 C   0  0  0  0  0  0  0  0  0  0  0  0
    4.5747    1.1729   -0.0683 N   0  0  0  0  0  0  0  0  0  0  0  0
    5.2647    0.0042   -0.0669 C   0  0  0  0  0  0  0  0  0  0  0  0
    6.7594    0.1398   -0.0632 C   0  0  0  0  0  0  0  0  0  0  0  0
    4.6311   -1.2430   -0.0683 C   0  0  0  0  0  0  0  0  0  0  0  0
    5.3669   -2.5504   -0.0666 C   0  0  0  0  0  0  0  0  0  0  0  0
    3.2287   -1.2622   -0.0712 C   0  0  0  0  0  0  0  0  0  0  0  0
    0.6007    0.9377   -0.0746 H   0  0  0  0  0  0  0  0  0  0  0  0
    0.6309   -0.5908    0.8162 H   0  0  0  0  0  0  0  0  0  0  0  0
    0.6334   -0.5893   -0.9681 H   0  0  0  0  0  0  0  0  0  0  0  0
    2.7305    2.0782   -0.0722 H   0  0  0  0  0  0  0  0  0  0  0  0
    7.0552    1.1943   -0.0634 H   0  0  0  0  0  0  0  0  0  0  0  0
    7.1870   -0.3263   -0.9562 H   0  0  0  0  0  0  0  0  0  0  0  0
    7.1822   -0.3245    0.8330 H   0  0  0  0  0  0  0  0  0  0  0  0
    6.4533   -2.4296   -0.0627 H   0  0  0  0  0  0  0  0  0  0  0  0
    5.1050   -3.1276   -0.9595 H   0  0  0  0  0  0  0  0  0  0  0  0
    5.0989   -3.1290    0.8236 H   0  0  0  0  0  0  0  0  0  0  0  0
    2.7015   -2.2142   -0.0721 H   0  0  0  0  0  0  0  0  0  0  0  0
  1  2  1  0  0  0  0
  1 10  1  0  0  0  0
  1 11  1  0  0  0  0
  1 12  1  0  0  0  0
  2  3  1  0  0  0  0
  2  9  2  0  0  0  0
  3  4  2  0  0  0  0
  3 13  1  0  0  0  0
  4  5  1  0  0  0  0
  5  6  1  0  0  0  0
  5  7  2  0  0  0  0
  6 14  1  0  0  0  0
  6 15  1  0  0  0  0
  6 16  1  0  0  0  0
  7  8  1  0  0  0  0
  7  9  1  0  0  0  0
  8 17  1  0  0  0  0
  8 18  1  0  0  0  0
  8 19  1  0  0  0  0
  9 20  1  0  0  0  0
M  END
