
  xtb     02012214053D
 xtb: 6.4.1 (23d549d)
 20 20  0     0  0            999 V2000
    1.0143   -0.0743   -0.0752 c   0  0  0  0  0  0  0  0  0  0  0  0
    2.5108   -0.0748   -0.0720 c   0  0  0  0  0  0  0  0  0  0  0  0
    3.2520    1.0992   -0.0700 c   0  0  0  0  0  0  0  0  0  0  0  0
    4.5709    1.1300   -0.0671 n   0  0  0  0  0  0  0  0  0  0  0  0
    5.2565   -0.0043   -0.0659 c   0  0  0  0  0  0  0  0  0  0  0  0
    6.7484    0.1460   -0.0626 c   0  0  0  0  0  0  0  0  0  0  0  0
    4.6212   -1.2516   -0.0677 c   0  0  0  0  0  0  0  0  0  0  0  0
    5.3645   -2.5542   -0.0665 c   0  0  0  0  0  0  0  0  0  0  0  0
    3.2329   -1.2620   -0.0708 c   0  0  0  0  0  0  0  0  0  0  0  0
    0.6293    0.9423   -0.0757 h   0  0  0  0  0  0  0  0  0  0  0  0
    0.6335   -0.5925    0.8043 h   0  0  0  0  0  0  0  0  0  0  0  0
    0.6373   -0.5918   -0.9569 h   0  0  0  0  0  0  0  0  0  0  0  0
    2.7646    2.0666   -0.0707 h   0  0  0  0  0  0  0  0  0  0  0  0
    6.9901    1.2049   -0.0619 h   0  0  0  0  0  0  0  0  0  0  0  0
    7.1862   -0.3165   -0.9460 h   0  0  0  0  0  0  0  0  0  0  0  0
    7.1823   -0.3169    0.8224 h   0  0  0  0  0  0  0  0  0  0  0  0
    6.4393   -2.4088   -0.0638 h   0  0  0  0  0  0  0  0  0  0  0  0
    5.0951   -3.1364   -0.9473 h   0  0  0  0  0  0  0  0  0  0  0  0
    5.0908   -3.1372    0.8125 h   0  0  0  0  0  0  0  0  0  0  0  0
    2.7081   -2.2088   -0.0722 h   0  0  0  0  0  0  0  0  0  0  0  0
  1  2  1  0  0  0  0
  2  3  4  0  0  0  0
  3  4  4  0  0  0  0
  4  5  4  0  0  0  0
  5  6  1  0  0  0  0
  5  7  4  0  0  0  0
  7  8  1  0  0  0  0
  2  9  4  0  0  0  0
  7  9  4  0  0  0  0
  1 10  1  0  0  0  0
  1 11  1  0  0  0  0
  1 12  1  0  0  0  0
  3 13  1  0  0  0  0
  6 14  1  0  0  0  0
  6 15  1  0  0  0  0
  6 16  1  0  0  0  0
  8 17  1  0  0  0  0
  8 18  1  0  0  0  0
  8 19  1  0  0  0  0
  9 20  1  0  0  0  0
M  END
