
 OpenBabel02012213533D

 24 24  0  0  0  0  0  0  0  0999 V2000
    1.9346    1.5336    0.1324 C   0  0  0  0  0  0  0  0  0  0  0  0
    0.6525    0.7485    0.0447 C   0  0  0  0  0  0  0  0  0  0  0  0
   -0.5740    1.4339    0.0064 C   0  0  0  0  0  0  0  0  0  0  0  0
   -1.7769    0.7319   -0.0800 C   0  0  0  0  0  0  0  0  0  0  0  0
   -1.7747   -0.6643   -0.1279 C   0  0  0  0  0  0  0  0  0  0  0  0
   -3.3226   -1.5621   -0.2576 S   0  0  0  0  0  0  0  0  0  0  0  0
   -4.1250   -2.0167   -1.8191 C   0  0  0  0  0  0  0  0  0  0  0  0
   -3.1896   -2.8371    0.5896 O   0  0  0  0  0  0  0  0  0  0  0  0
   -4.3585   -0.8233    0.6040 O   0  0  0  0  0  0  0  0  0  0  0  0
   -0.5611   -1.3594   -0.0902 C   0  0  0  0  0  0  0  0  0  0  0  0
    0.6587   -0.6666   -0.0035 C   0  0  0  0  0  0  0  0  0  0  0  0
    1.9485   -1.4440    0.0335 C   0  0  0  0  0  0  0  0  0  0  0  0
    1.7453    2.6279    0.1586 H   0  0  0  0  0  0  0  0  0  0  0  0
    2.5697    1.3167   -0.7520 H   0  0  0  0  0  0  0  0  0  0  0  0
    2.4841    1.2573    1.0563 H   0  0  0  0  0  0  0  0  0  0  0  0
   -0.6016    2.5160    0.0408 H   0  0  0  0  0  0  0  0  0  0  0  0
   -2.7113    1.2779   -0.1129 H   0  0  0  0  0  0  0  0  0  0  0  0
   -3.4533   -2.6812   -2.4005 H   0  0  0  0  0  0  0  0  0  0  0  0
   -4.3521   -1.0985   -2.3988 H   0  0  0  0  0  0  0  0  0  0  0  0
   -5.0719   -2.5542   -1.6063 H   0  0  0  0  0  0  0  0  0  0  0  0
   -0.5697   -2.4417   -0.1322 H   0  0  0  0  0  0  0  0  0  0  0  0
    1.7696   -2.5394   -0.0126 H   0  0  0  0  0  0  0  0  0  0  0  0
    2.4939   -1.2248    0.9750 H   0  0  0  0  0  0  0  0  0  0  0  0
    2.5828   -1.1631   -0.8330 H   0  0  0  0  0  0  0  0  0  0  0  0
  1  2  1  0  0  0  0
  1 13  1  0  0  0  0
  1 14  1  0  0  0  0
  1 15  1  0  0  0  0
  2  3  1  0  0  0  0
  2 11  2  0  0  0  0
  3  4  2  0  0  0  0
  3 16  1  0  0  0  0
  4  5  1  0  0  0  0
  4 17  1  0  0  0  0
  5  6  1  0  0  0  0
  5 10  2  0  0  0  0
  6  7  1  0  0  0  0
  6  8  2  0  0  0  0
  6  9  2  0  0  0  0
  7 18  1  0  0  0  0
  7 19  1  0  0  0  0
  7 20  1  0  0  0  0
 10 11  1  0  0  0  0
 10 21  1  0  0  0  0
 11 12  1  0  0  0  0
 12 22  1  0  0  0  0
 12 23  1  0  0  0  0
 12 24  1  0  0  0  0
M  END
