39

C          2.06832        0.81412       -1.12940
O          2.30170        0.29540        0.12760
C          2.97500        0.91870        1.12950
C          2.67860        0.68990        2.50080
C          3.40210        1.34560        3.50710
C          4.00020        1.82020        0.77820
C          4.69990        2.48730        1.79680
C          4.40430        2.23070        3.12100
C          5.26170        2.99230        3.87280
C          5.38800        3.12170        5.25540
C          6.35510        4.01230        5.74490
C          7.15850        4.75150        4.85440
C          7.01220        4.60260        3.46370
C          6.05460        3.69310        2.98410
N          5.72080        3.39150        1.69320
C          6.31440        3.92770        0.48150
C          5.55547        4.06507       -0.69758
C          6.13099        4.56979       -1.86705
C          7.48023        4.94655       -1.88602
C          8.11343        5.48114       -3.13665
C          8.24363        4.81741       -0.71999
C          7.66822        4.31550        0.45062
H          1.49693        0.07455       -1.72672
H          3.03218        1.01544       -1.64422
H          1.47171        1.74821       -1.05707
H          1.89790        0.00210        2.79590
H          3.18380        1.16440        4.55160
H          4.22640        1.96640       -0.26580
H          4.75850        2.56100        5.93390
H          6.47710        4.14000        6.81270
H          7.89110        5.44610        5.24480
H          7.62770        5.20080        2.81190
H          4.50675        3.80826       -0.71777
H          5.52067        4.66731       -2.75644
H          7.38740        5.52107       -3.97651
H          8.95855        4.82543       -3.43506
H          8.49649        6.50682       -2.95306
H          9.28969        5.09921       -0.71941
H          8.29984        4.20399        1.31910
39

C          2.06832        0.81412       -1.12940
O          2.30170        0.29540        0.12760
C          2.97500        0.91870        1.12950
C          2.67860        0.68990        2.50080
C          3.40210        1.34560        3.50710
C          4.00020        1.82020        0.77820
C          4.69990        2.48730        1.79680
C          4.40430        2.23070        3.12100
C          5.26170        2.99230        3.87280
C          5.38800        3.12170        5.25540
C          6.35510        4.01230        5.74490
C          7.15850        4.75150        4.85440
C          7.01220        4.60260        3.46370
C          6.05460        3.69310        2.98410
N          5.72080        3.39150        1.69320
C          6.31440        3.92770        0.48150
C          6.86032        5.22630        0.45552
C          7.42044        5.74630       -0.71473
C          7.44537        4.98091       -1.88790
C          8.03504        5.52971       -3.15356
C          6.90866        3.68831       -1.87364
C          6.35096        3.16650       -0.70315
H          1.49693        0.07455       -1.72672
H          3.03218        1.01544       -1.64422
H          1.47171        1.74821       -1.05707
H          1.89790        0.00210        2.79590
H          3.18380        1.16440        4.55160
H          4.22640        1.96640       -0.26580
H          4.75850        2.56100        5.93390
H          6.47710        4.14000        6.81270
H          7.89110        5.44610        5.24480
H          7.62770        5.20080        2.81190
H          6.88185        5.83910        1.34445
H          7.83588        6.74644       -0.70219
H          8.41515        6.56385       -3.01158
H          7.25925        5.54764       -3.94794
H          8.87790        4.88672       -3.48313
H          6.91527        3.08547       -2.77374
H          5.92093        2.17699       -0.74328
39

C          2.06832        0.81412       -1.12940
O          2.30170        0.29540        0.12760
C          2.97500        0.91870        1.12950
C          2.67860        0.68990        2.50080
C          3.40210        1.34560        3.50710
C          4.00020        1.82020        0.77820
C          4.69990        2.48730        1.79680
C          4.40430        2.23070        3.12100
C          5.26170        2.99230        3.87280
C          5.38800        3.12170        5.25540
C          6.35510        4.01230        5.74490
C          7.15850        4.75150        4.85440
C          7.01220        4.60260        3.46370
C          6.05460        3.69310        2.98410
N          5.72080        3.39150        1.69320
C          6.31440        3.92770        0.48150
C          5.85228        3.53036       -0.78879
C          6.43254        4.03766       -1.95480
C          7.49091        4.95241       -1.87820
C          8.12927        5.49800       -3.12142
C          7.95674        5.35687       -0.62182
C          7.37521        4.85229        0.54461
H          1.49693        0.07455       -1.72672
H          3.03218        1.01544       -1.64422
H          1.47171        1.74821       -1.05707
H          1.89790        0.00210        2.79590
H          3.18380        1.16440        4.55160
H          4.22640        1.96640       -0.26580
H          4.75850        2.56100        5.93390
H          6.47710        4.14000        6.81270
H          7.89110        5.44610        5.24480
H          7.62770        5.20080        2.81190
H          5.02343        2.84567       -0.89062
H          6.05263        3.71616       -2.91674
H          7.65765        5.08339       -4.03781
H          9.20781        5.23370       -3.13228
H          8.02569        6.60315       -3.14107
H          8.77786        6.05940       -0.54525
H          7.78435        5.16721        1.49281
39

C          2.53951        0.45422       -1.22214
O          2.30170        0.29540        0.12760
C          2.97500        0.91870        1.12950
C          2.67860        0.68990        2.50080
C          3.40210        1.34560        3.50710
C          4.00020        1.82020        0.77820
C          4.69990        2.48730        1.79680
C          4.40430        2.23070        3.12100
C          5.26170        2.99230        3.87280
C          5.38800        3.12170        5.25540
C          6.35510        4.01230        5.74490
C          7.15850        4.75150        4.85440
C          7.01220        4.60260        3.46370
C          6.05460        3.69310        2.98410
N          5.72080        3.39150        1.69320
C          6.31440        3.92770        0.48150
C          6.86032        5.22630        0.45552
C          7.42044        5.74630       -0.71473
C          7.44537        4.98091       -1.88790
C          8.03504        5.52971       -3.15356
C          6.90866        3.68831       -1.87364
C          6.35096        3.16650       -0.70315
H          1.83450       -0.18457       -1.79236
H          3.57716        0.14083       -1.46636
H          2.37993        1.51213       -1.52055
H          1.89790        0.00210        2.79590
H          3.18380        1.16440        4.55160
H          4.22640        1.96640       -0.26580
H          4.75850        2.56100        5.93390
H          6.47710        4.14000        6.81270
H          7.89110        5.44610        5.24480
H          7.62770        5.20080        2.81190
H          6.88185        5.83910        1.34445
H          7.83588        6.74644       -0.70219
H          8.41515        6.56385       -3.01158
H          7.25925        5.54764       -3.94794
H          8.87790        4.88672       -3.48313
H          6.91527        3.08547       -2.77374
H          5.92093        2.17699       -0.74328
39

C          2.82043       -0.03255       -1.10810
O          2.30170        0.29540        0.12760
C          2.97500        0.91870        1.12950
C          2.67860        0.68990        2.50080
C          3.40210        1.34560        3.50710
C          4.00020        1.82020        0.77820
C          4.69990        2.48730        1.79680
C          4.40430        2.23070        3.12100
C          5.26170        2.99230        3.87280
C          5.38800        3.12170        5.25540
C          6.35510        4.01230        5.74490
C          7.15850        4.75150        4.85440
C          7.01220        4.60260        3.46370
C          6.05460        3.69310        2.98410
N          5.72080        3.39150        1.69320
C          6.31440        3.92770        0.48150
C          6.86032        5.22630        0.45552
C          7.42044        5.74630       -0.71473
C          7.44537        4.98091       -1.88790
C          8.03504        5.52971       -3.15356
C          6.90866        3.68831       -1.87364
C          6.35096        3.16650       -0.70315
H          2.03512       -0.53417       -1.70970
H          3.67569       -0.73188       -0.98964
H          3.14747        0.88311       -1.64504
H          1.89790        0.00210        2.79590
H          3.18380        1.16440        4.55160
H          4.22640        1.96640       -0.26580
H          4.75850        2.56100        5.93390
H          6.47710        4.14000        6.81270
H          7.89110        5.44610        5.24480
H          7.62770        5.20080        2.81190
H          6.88185        5.83910        1.34445
H          7.83588        6.74644       -0.70219
H          8.41515        6.56385       -3.01158
H          7.25925        5.54764       -3.94794
H          8.87790        4.88672       -3.48313
H          6.91527        3.08547       -2.77374
H          5.92093        2.17699       -0.74328
39

C          2.53951        0.45422       -1.22214
O          2.30170        0.29540        0.12760
C          2.97500        0.91870        1.12950
C          2.67860        0.68990        2.50080
C          3.40210        1.34560        3.50710
C          4.00020        1.82020        0.77820
C          4.69990        2.48730        1.79680
C          4.40430        2.23070        3.12100
C          5.26170        2.99230        3.87280
C          5.38800        3.12170        5.25540
C          6.35510        4.01230        5.74490
C          7.15850        4.75150        4.85440
C          7.01220        4.60260        3.46370
C          6.05460        3.69310        2.98410
N          5.72080        3.39150        1.69320
C          6.31440        3.92770        0.48150
C          5.55547        4.06507       -0.69758
C          6.13099        4.56979       -1.86705
C          7.48023        4.94655       -1.88602
C          8.11343        5.48114       -3.13665
C          8.24363        4.81741       -0.71999
C          7.66822        4.31550        0.45062
H          1.83450       -0.18457       -1.79236
H          3.57716        0.14083       -1.46636
H          2.37993        1.51213       -1.52055
H          1.89790        0.00210        2.79590
H          3.18380        1.16440        4.55160
H          4.22640        1.96640       -0.26580
H          4.75850        2.56100        5.93390
H          6.47710        4.14000        6.81270
H          7.89110        5.44610        5.24480
H          7.62770        5.20080        2.81190
H          4.50675        3.80826       -0.71777
H          5.52067        4.66731       -2.75644
H          7.38740        5.52107       -3.97651
H          8.95855        4.82543       -3.43506
H          8.49649        6.50682       -2.95306
H          9.28969        5.09921       -0.71941
H          8.29984        4.20399        1.31910
39

C          2.82043       -0.03255       -1.10810
O          2.30170        0.29540        0.12760
C          2.97500        0.91870        1.12950
C          2.67860        0.68990        2.50080
C          3.40210        1.34560        3.50710
C          4.00020        1.82020        0.77820
C          4.69990        2.48730        1.79680
C          4.40430        2.23070        3.12100
C          5.26170        2.99230        3.87280
C          5.38800        3.12170        5.25540
C          6.35510        4.01230        5.74490
C          7.15850        4.75150        4.85440
C          7.01220        4.60260        3.46370
C          6.05460        3.69310        2.98410
N          5.72080        3.39150        1.69320
C          6.31440        3.92770        0.48150
C          5.55547        4.06507       -0.69758
C          6.13099        4.56979       -1.86705
C          7.48023        4.94655       -1.88602
C          8.11343        5.48114       -3.13665
C          8.24363        4.81741       -0.71999
C          7.66822        4.31550        0.45062
H          2.03512       -0.53417       -1.70970
H          3.67569       -0.73188       -0.98964
H          3.14747        0.88311       -1.64504
H          1.89790        0.00210        2.79590
H          3.18380        1.16440        4.55160
H          4.22640        1.96640       -0.26580
H          4.75850        2.56100        5.93390
H          6.47710        4.14000        6.81270
H          7.89110        5.44610        5.24480
H          7.62770        5.20080        2.81190
H          4.50675        3.80826       -0.71777
H          5.52067        4.66731       -2.75644
H          7.38740        5.52107       -3.97651
H          8.95855        4.82543       -3.43506
H          8.49649        6.50682       -2.95306
H          9.28969        5.09921       -0.71941
H          8.29984        4.20399        1.31910
39

C          2.82043       -0.03255       -1.10810
O          2.30170        0.29540        0.12760
C          2.97500        0.91870        1.12950
C          2.67860        0.68990        2.50080
C          3.40210        1.34560        3.50710
C          4.00020        1.82020        0.77820
C          4.69990        2.48730        1.79680
C          4.40430        2.23070        3.12100
C          5.26170        2.99230        3.87280
C          5.38800        3.12170        5.25540
C          6.35510        4.01230        5.74490
C          7.15850        4.75150        4.85440
C          7.01220        4.60260        3.46370
C          6.05460        3.69310        2.98410
N          5.72080        3.39150        1.69320
C          6.31440        3.92770        0.48150
C          5.85228        3.53036       -0.78879
C          6.43254        4.03766       -1.95480
C          7.49091        4.95241       -1.87820
C          8.12927        5.49800       -3.12142
C          7.95674        5.35687       -0.62182
C          7.37521        4.85229        0.54461
H          2.03512       -0.53417       -1.70970
H          3.67569       -0.73188       -0.98964
H          3.14747        0.88311       -1.64504
H          1.89790        0.00210        2.79590
H          3.18380        1.16440        4.55160
H          4.22640        1.96640       -0.26580
H          4.75850        2.56100        5.93390
H          6.47710        4.14000        6.81270
H          7.89110        5.44610        5.24480
H          7.62770        5.20080        2.81190
H          5.02343        2.84567       -0.89062
H          6.05263        3.71616       -2.91674
H          7.65765        5.08339       -4.03781
H          9.20781        5.23370       -3.13228
H          8.02569        6.60315       -3.14107
H          8.77786        6.05940       -0.54525
H          7.78435        5.16721        1.49281
39

C          2.53951        0.45422       -1.22214
O          2.30170        0.29540        0.12760
C          2.97500        0.91870        1.12950
C          2.67860        0.68990        2.50080
C          3.40210        1.34560        3.50710
C          4.00020        1.82020        0.77820
C          4.69990        2.48730        1.79680
C          4.40430        2.23070        3.12100
C          5.26170        2.99230        3.87280
C          5.38800        3.12170        5.25540
C          6.35510        4.01230        5.74490
C          7.15850        4.75150        4.85440
C          7.01220        4.60260        3.46370
C          6.05460        3.69310        2.98410
N          5.72080        3.39150        1.69320
C          6.31440        3.92770        0.48150
C          5.85228        3.53036       -0.78879
C          6.43254        4.03766       -1.95480
C          7.49091        4.95241       -1.87820
C          8.12927        5.49800       -3.12142
C          7.95674        5.35687       -0.62182
C          7.37521        4.85229        0.54461
H          1.83450       -0.18457       -1.79236
H          3.57716        0.14083       -1.46636
H          2.37993        1.51213       -1.52055
H          1.89790        0.00210        2.79590
H          3.18380        1.16440        4.55160
H          4.22640        1.96640       -0.26580
H          4.75850        2.56100        5.93390
H          6.47710        4.14000        6.81270
H          7.89110        5.44610        5.24480
H          7.62770        5.20080        2.81190
H          5.02343        2.84567       -0.89062
H          6.05263        3.71616       -2.91674
H          7.65765        5.08339       -4.03781
H          9.20781        5.23370       -3.13228
H          8.02569        6.60315       -3.14107
H          8.77786        6.05940       -0.54525
H          7.78435        5.16721        1.49281
39

C          0.98944       -0.12729        0.18131
O          2.30170        0.29540        0.12760
C          2.97500        0.91870        1.12950
C          2.67860        0.68990        2.50080
C          3.40210        1.34560        3.50710
C          4.00020        1.82020        0.77820
C          4.69990        2.48730        1.79680
C          4.40430        2.23070        3.12100
C          5.26170        2.99230        3.87280
C          5.38800        3.12170        5.25540
C          6.35510        4.01230        5.74490
C          7.15850        4.75150        4.85440
C          7.01220        4.60260        3.46370
C          6.05460        3.69310        2.98410
N          5.72080        3.39150        1.69320
C          6.31440        3.92770        0.48150
C          5.55547        4.06507       -0.69758
C          6.13099        4.56979       -1.86705
C          7.48023        4.94655       -1.88602
C          8.11343        5.48114       -3.13665
C          8.24363        4.81741       -0.71999
C          7.66822        4.31550        0.45062
H          0.71990       -0.59763       -0.78636
H          0.31591        0.73963        0.35276
H          0.85834       -0.87827        0.98910
H          1.89790        0.00210        2.79590
H          3.18380        1.16440        4.55160
H          4.22640        1.96640       -0.26580
H          4.75850        2.56100        5.93390
H          6.47710        4.14000        6.81270
H          7.89110        5.44610        5.24480
H          7.62770        5.20080        2.81190
H          4.50675        3.80826       -0.71777
H          5.52067        4.66731       -2.75644
H          7.38740        5.52107       -3.97651
H          8.95855        4.82543       -3.43506
H          8.49649        6.50682       -2.95306
H          9.28969        5.09921       -0.71941
H          8.29984        4.20399        1.31910
