
 OpenBabel02012213433D

 39 42  0  0  0  0  0  0  0  0999 V2000
    1.2457   -0.5777    0.2893 C   0  0  0  0  0  0  0  0  0  0  0  0
    2.3017    0.2954    0.1276 O   0  0  0  0  0  0  0  0  0  0  0  0
    2.9750    0.9187    1.1295 C   0  0  0  0  0  0  0  0  0  0  0  0
    2.6786    0.6899    2.5008 C   0  0  0  0  0  0  0  0  0  0  0  0
    3.4021    1.3456    3.5071 C   0  0  0  0  0  0  0  0  0  0  0  0
    4.0002    1.8202    0.7782 C   0  0  0  0  0  0  0  0  0  0  0  0
    4.6999    2.4873    1.7968 C   0  0  0  0  0  0  0  0  0  0  0  0
    4.4043    2.2307    3.1210 C   0  0  0  0  0  0  0  0  0  0  0  0
    5.2617    2.9923    3.8728 C   0  0  0  0  0  0  0  0  0  0  0  0
    5.3880    3.1217    5.2554 C   0  0  0  0  0  0  0  0  0  0  0  0
    6.3551    4.0123    5.7449 C   0  0  0  0  0  0  0  0  0  0  0  0
    7.1585    4.7515    4.8544 C   0  0  0  0  0  0  0  0  0  0  0  0
    7.0122    4.6026    3.4637 C   0  0  0  0  0  0  0  0  0  0  0  0
    6.0546    3.6931    2.9841 C   0  0  0  0  0  0  0  0  0  0  0  0
    5.7208    3.3915    1.6932 N   0  0  0  0  0  0  0  0  0  0  0  0
    6.3144    3.9277    0.4815 C   0  0  0  0  0  0  0  0  0  0  0  0
    7.7010    4.1627    0.3967 C   0  0  0  0  0  0  0  0  0  0  0  0
    8.2699    4.6905   -0.7658 C   0  0  0  0  0  0  0  0  0  0  0  0
    7.4651    4.9986   -1.8704 C   0  0  0  0  0  0  0  0  0  0  0  0
    8.0609    5.5742   -3.1212 C   0  0  0  0  0  0  0  0  0  0  0  0
    6.0866    4.7668   -1.7991 C   0  0  0  0  0  0  0  0  0  0  0  0
    5.5173    4.2364   -0.6381 C   0  0  0  0  0  0  0  0  0  0  0  0
    0.9029   -0.9211   -0.7081 H   0  0  0  0  0  0  0  0  0  0  0  0
    0.4005   -0.0647    0.7963 H   0  0  0  0  0  0  0  0  0  0  0  0
    1.5638   -1.4635    0.8791 H   0  0  0  0  0  0  0  0  0  0  0  0
    1.8979    0.0021    2.7959 H   0  0  0  0  0  0  0  0  0  0  0  0
    3.1838    1.1644    4.5516 H   0  0  0  0  0  0  0  0  0  0  0  0
    4.2264    1.9664   -0.2658 H   0  0  0  0  0  0  0  0  0  0  0  0
    4.7585    2.5610    5.9339 H   0  0  0  0  0  0  0  0  0  0  0  0
    6.4771    4.1400    6.8127 H   0  0  0  0  0  0  0  0  0  0  0  0
    7.8911    5.4461    5.2448 H   0  0  0  0  0  0  0  0  0  0  0  0
    7.6277    5.2008    2.8119 H   0  0  0  0  0  0  0  0  0  0  0  0
    8.3586    3.9167    1.2172 H   0  0  0  0  0  0  0  0  0  0  0  0
    9.3396    4.8562   -0.8020 H   0  0  0  0  0  0  0  0  0  0  0  0
    9.1600    5.7051   -3.0267 H   0  0  0  0  0  0  0  0  0  0  0  0
    7.6064    6.5663   -3.3271 H   0  0  0  0  0  0  0  0  0  0  0  0
    7.8591    4.8972   -3.9776 H   0  0  0  0  0  0  0  0  0  0  0  0
    5.4496    5.0046   -2.6425 H   0  0  0  0  0  0  0  0  0  0  0  0
    4.4464    4.1013   -0.6141 H   0  0  0  0  0  0  0  0  0  0  0  0
  1  2  1  0  0  0  0
  1 23  1  0  0  0  0
  1 24  1  0  0  0  0
  1 25  1  0  0  0  0
  2  3  1  0  0  0  0
  3  4  2  0  0  0  0
  3  6  1  0  0  0  0
  4  5  1  0  0  0  0
  4 26  1  0  0  0  0
  5  8  2  0  0  0  0
  5 27  1  0  0  0  0
  6  7  2  0  0  0  0
  6 28  1  0  0  0  0
  7  8  1  0  0  0  0
  7 15  1  0  0  0  0
  8  9  1  0  0  0  0
  9 10  2  0  0  0  0
  9 14  1  0  0  0  0
 10 11  1  0  0  0  0
 10 29  1  0  0  0  0
 11 12  2  0  0  0  0
 11 30  1  0  0  0  0
 12 13  1  0  0  0  0
 12 31  1  0  0  0  0
 13 14  2  0  0  0  0
 13 32  1  0  0  0  0
 14 15  1  0  0  0  0
 15 16  1  0  0  0  0
 16 17  1  0  0  0  0
 16 22  2  0  0  0  0
 17 18  2  0  0  0  0
 17 33  1  0  0  0  0
 18 19  1  0  0  0  0
 18 34  1  0  0  0  0
 19 20  1  0  0  0  0
 19 21  2  0  0  0  0
 20 35  1  0  0  0  0
 20 36  1  0  0  0  0
 20 37  1  0  0  0  0
 21 22  1  0  0  0  0
 21 38  1  0  0  0  0
 22 39  1  0  0  0  0
M  END
