
 OpenBabel02012213433D

 39 42  0  0  0  0  0  0  0  0999 V2000
    1.1139   -0.4051    0.3251 C   0  0  0  0  0  0  0  0  0  0  0  0
    2.4522    0.0215    0.0922 O   0  0  0  0  0  0  0  0  0  0  0  0
    3.0503    0.6875    1.1297 C   0  0  0  0  0  0  0  0  0  0  0  0
    2.7175    0.5377    2.4700 C   0  0  0  0  0  0  0  0  0  0  0  0
    3.4071    1.2541    3.4530 C   0  0  0  0  0  0  0  0  0  0  0  0
    4.0924    1.5427    0.7549 C   0  0  0  0  0  0  0  0  0  0  0  0
    4.7522    2.3115    1.7396 C   0  0  0  0  0  0  0  0  0  0  0  0
    4.4362    2.1500    3.0903 C   0  0  0  0  0  0  0  0  0  0  0  0
    5.3038    2.9875    3.8465 C   0  0  0  0  0  0  0  0  0  0  0  0
    5.4377    3.2344    5.2342 C   0  0  0  0  0  0  0  0  0  0  0  0
    6.3769    4.1600    5.6934 C   0  0  0  0  0  0  0  0  0  0  0  0
    7.1683    4.8563    4.7943 C   0  0  0  0  0  0  0  0  0  0  0  0
    7.0448    4.6383    3.4197 C   0  0  0  0  0  0  0  0  0  0  0  0
    6.1300    3.6690    2.9507 C   0  0  0  0  0  0  0  0  0  0  0  0
    5.7848    3.2511    1.6562 N   0  0  0  0  0  0  0  0  0  0  0  0
    6.3628    3.7589    0.4491 C   0  0  0  0  0  0  0  0  0  0  0  0
    7.7271    4.0630    0.3947 C   0  0  0  0  0  0  0  0  0  0  0  0
    8.2679    4.6949   -0.7266 C   0  0  0  0  0  0  0  0  0  0  0  0
    7.4577    5.0028   -1.8225 C   0  0  0  0  0  0  0  0  0  0  0  0
    8.0077    5.7534   -2.9971 C   0  0  0  0  0  0  0  0  0  0  0  0
    6.1115    4.6226   -1.8022 C   0  0  0  0  0  0  0  0  0  0  0  0
    5.5612    4.0158   -0.6710 C   0  0  0  0  0  0  0  0  0  0  0  0
    0.7133   -0.7820   -0.6206 H   0  0  0  0  0  0  0  0  0  0  0  0
    0.4829    0.4312    0.6469 H   0  0  0  0  0  0  0  0  0  0  0  0
    1.0795   -1.2258    1.0479 H   0  0  0  0  0  0  0  0  0  0  0  0
    1.9441   -0.1518    2.7918 H   0  0  0  0  0  0  0  0  0  0  0  0
    3.1519    1.1142    4.5002 H   0  0  0  0  0  0  0  0  0  0  0  0
    4.3719    1.6008   -0.2927 H   0  0  0  0  0  0  0  0  0  0  0  0
    4.8006    2.7147    5.9436 H   0  0  0  0  0  0  0  0  0  0  0  0
    6.4741    4.3474    6.7605 H   0  0  0  0  0  0  0  0  0  0  0  0
    7.8861    5.5888    5.1565 H   0  0  0  0  0  0  0  0  0  0  0  0
    7.6466    5.2355    2.7422 H   0  0  0  0  0  0  0  0  0  0  0  0
    8.3968    3.8071    1.2122 H   0  0  0  0  0  0  0  0  0  0  0  0
    9.3220    4.9591   -0.7273 H   0  0  0  0  0  0  0  0  0  0  0  0
    9.0506    6.0456   -2.8328 H   0  0  0  0  0  0  0  0  0  0  0  0
    7.4302    6.6692   -3.1542 H   0  0  0  0  0  0  0  0  0  0  0  0
    7.9625    5.1359   -3.9005 H   0  0  0  0  0  0  0  0  0  0  0  0
    5.4707    4.8316   -2.6568 H   0  0  0  0  0  0  0  0  0  0  0  0
    4.4939    3.8174   -0.6673 H   0  0  0  0  0  0  0  0  0  0  0  0
  1  2  1  0  0  0  0
  1 23  1  0  0  0  0
  1 24  1  0  0  0  0
  1 25  1  0  0  0  0
  2  3  1  0  0  0  0
  3  4  2  0  0  0  0
  3  6  1  0  0  0  0
  4  5  1  0  0  0  0
  4 26  1  0  0  0  0
  5  8  2  0  0  0  0
  5 27  1  0  0  0  0
  6  7  2  0  0  0  0
  6 28  1  0  0  0  0
  7  8  1  0  0  0  0
  7 15  1  0  0  0  0
  8  9  1  0  0  0  0
  9 10  2  0  0  0  0
  9 14  1  0  0  0  0
 10 11  1  0  0  0  0
 10 29  1  0  0  0  0
 11 12  2  0  0  0  0
 11 30  1  0  0  0  0
 12 13  1  0  0  0  0
 12 31  1  0  0  0  0
 13 14  2  0  0  0  0
 13 32  1  0  0  0  0
 14 15  1  0  0  0  0
 15 16  1  0  0  0  0
 16 17  1  0  0  0  0
 16 22  2  0  0  0  0
 17 18  2  0  0  0  0
 17 33  1  0  0  0  0
 18 19  1  0  0  0  0
 18 34  1  0  0  0  0
 19 20  1  0  0  0  0
 19 21  2  0  0  0  0
 20 35  1  0  0  0  0
 20 36  1  0  0  0  0
 20 37  1  0  0  0  0
 21 22  1  0  0  0  0
 21 38  1  0  0  0  0
 22 39  1  0  0  0  0
M  END
