
  xtb     02032211353D
 xtb: 6.4.1 (23d549d)
 22 22  0     0  0            999 V2000
    3.7744    1.5376   -0.0538 C   0  0  0  0  0  0  0  0  0  0  0  0
    3.3369    0.2855    0.0031 C   0  0  0  0  0  0  0  0  0  0  0  0
    1.9465   -0.1480    0.0359 C   0  0  0  0  0  0  0  0  0  0  0  0
    0.8542    0.7222   -0.0012 C   0  0  0  0  0  0  0  0  0  0  0  0
   -0.4348    0.2073    0.0387 C   0  0  0  0  0  0  0  0  0  0  0  0
   -1.5760    1.1735    0.1303 C   0  0  0  0  0  0  0  0  0  0  0  0
   -2.3638    1.1963    1.0297 O   0  0  0  0  0  0  0  0  0  0  0  0
   -1.6213    2.0857   -0.8645 O   0  0  0  0  0  0  0  0  0  0  0  0
   -0.6167   -1.1820    0.0949 C   0  0  0  0  0  0  0  0  0  0  0  0
   -1.9181   -1.8342    0.0667 C   0  0  0  0  0  0  0  0  0  0  0  0
   -2.9816   -1.3934   -0.5917 C   0  0  0  0  0  0  0  0  0  0  0  0
    0.5503   -1.9547    0.1443 C   0  0  0  0  0  0  0  0  0  0  0  0
    1.7682   -1.4687    0.1128 N   0  0  0  0  0  0  0  0  0  0  0  0
    4.8274    1.7586   -0.0726 H   0  0  0  0  0  0  0  0  0  0  0  0
    3.1167    2.3902   -0.0795 H   0  0  0  0  0  0  0  0  0  0  0  0
    4.0370   -0.5378    0.0324 H   0  0  0  0  0  0  0  0  0  0  0  0
    1.0078    1.7912   -0.0203 H   0  0  0  0  0  0  0  0  0  0  0  0
   -0.9136    1.9616   -1.5116 H   0  0  0  0  0  0  0  0  0  0  0  0
   -1.9627   -2.7796    0.5918 H   0  0  0  0  0  0  0  0  0  0  0  0
   -2.9744   -0.4817   -1.1653 H   0  0  0  0  0  0  0  0  0  0  0  0
   -3.9091   -1.9386   -0.5857 H   0  0  0  0  0  0  0  0  0  0  0  0
    0.4810   -3.0338    0.2031 H   0  0  0  0  0  0  0  0  0  0  0  0
  1  2  2  0  0  0  0
  2  3  1  0  0  0  0
  3  4  4  0  0  0  0
  4  5  4  0  0  0  0
  5  6  1  0  0  0  0
  6  7  2  0  0  0  0
  6  8  1  0  0  0  0
  5  9  4  0  0  0  0
  9 10  1  0  0  0  0
 10 11  2  0  0  0  0
  9 12  4  0  0  0  0
  3 13  4  0  0  0  0
 12 13  4  0  0  0  0
  1 14  1  0  0  0  0
  1 15  1  0  0  0  0
  2 16  1  0  0  0  0
  4 17  1  0  0  0  0
  8 18  1  0  0  0  0
 10 19  1  0  0  0  0
 11 20  1  0  0  0  0
 11 21  1  0  0  0  0
 12 22  1  0  0  0  0
M  END
