
  xtb     02032211353D
 xtb: 6.4.1 (23d549d)
 41 41  0     0  0            999 V2000
   -2.6957    0.3759    3.3154 C   0  0  0  0  0  0  0  0  0  0  0  0
   -3.3036    0.1635    2.1506 C   0  0  0  0  0  0  0  0  0  0  0  0
   -2.6401   -0.1354    0.9101 C   0  0  0  0  0  0  0  0  0  0  0  0
   -1.3060   -0.2964    0.6370 C   0  0  0  0  0  0  0  0  0  0  0  0
   -1.0112   -0.5732   -0.7116 C   0  0  0  0  0  0  0  0  0  0  0  0
    0.3951   -0.7715   -1.1819 C   0  0  0  0  0  0  0  0  0  0  0  0
    1.0187    0.5363   -1.6923 C   0  0  0  0  0  0  0  0  0  0  0  0
    1.2101    1.5951   -0.6052 C   0  0  0  0  0  0  0  0  0  0  0  0
    2.2142    1.2253    0.4882 C   0  0  0  0  0  0  0  0  0  0  0  0
    3.6389    1.0512   -0.0346 C   0  0  0  0  0  0  0  0  0  0  0  0
    4.6714    0.8881    1.0814 C   0  0  0  0  0  0  0  0  0  0  0  0
    4.5203   -0.4172    1.8605 C   0  0  0  0  0  0  0  0  0  0  0  0
    5.6476   -0.6028    2.8689 C   0  0  0  0  0  0  0  0  0  0  0  0
   -2.1457   -0.6302   -1.4964 C   0  0  0  0  0  0  0  0  0  0  0  0
   -2.3696   -0.9081   -2.8916 C   0  0  0  0  0  0  0  0  0  0  0  0
   -1.4864   -0.9381   -3.8874 C   0  0  0  0  0  0  0  0  0  0  0  0
   -3.5738   -0.3459   -0.5360 S   0  0  0  0  0  0  0  0  0  0  0  0
   -3.2566    0.5947    4.2066 H   0  0  0  0  0  0  0  0  0  0  0  0
   -1.6251    0.3391    3.4189 H   0  0  0  0  0  0  0  0  0  0  0  0
   -4.3832    0.2135    2.0904 H   0  0  0  0  0  0  0  0  0  0  0  0
   -0.5456   -0.2263    1.3942 H   0  0  0  0  0  0  0  0  0  0  0  0
    0.4127   -1.5166   -1.9791 H   0  0  0  0  0  0  0  0  0  0  0  0
    0.9929   -1.1586   -0.3554 H   0  0  0  0  0  0  0  0  0  0  0  0
    0.3678    0.9587   -2.4614 H   0  0  0  0  0  0  0  0  0  0  0  0
    1.9798    0.3115   -2.1579 H   0  0  0  0  0  0  0  0  0  0  0  0
    0.2424    1.7989   -0.1405 H   0  0  0  0  0  0  0  0  0  0  0  0
    1.5434    2.5192   -1.0848 H   0  0  0  0  0  0  0  0  0  0  0  0
    1.8941    0.3108    0.9877 H   0  0  0  0  0  0  0  0  0  0  0  0
    2.2109    2.0234    1.2354 H   0  0  0  0  0  0  0  0  0  0  0  0
    3.9025    1.9289   -0.6305 H   0  0  0  0  0  0  0  0  0  0  0  0
    3.6902    0.1782   -0.6881 H   0  0  0  0  0  0  0  0  0  0  0  0
    4.5961    1.7316    1.7720 H   0  0  0  0  0  0  0  0  0  0  0  0
    5.6703    0.9144    0.6382 H   0  0  0  0  0  0  0  0  0  0  0  0
    4.5196   -1.2561    1.1602 H   0  0  0  0  0  0  0  0  0  0  0  0
    3.5661   -0.4233    2.3901 H   0  0  0  0  0  0  0  0  0  0  0  0
    6.6112   -0.6303    2.3644 H   0  0  0  0  0  0  0  0  0  0  0  0
    5.5218   -1.5330    3.4185 H   0  0  0  0  0  0  0  0  0  0  0  0
    5.6595    0.2184    3.5824 H   0  0  0  0  0  0  0  0  0  0  0  0
   -3.4110   -1.0984   -3.1255 H   0  0  0  0  0  0  0  0  0  0  0  0
   -0.4410   -0.7277   -3.7636 H   0  0  0  0  0  0  0  0  0  0  0  0
   -1.8060   -1.1717   -4.8886 H   0  0  0  0  0  0  0  0  0  0  0  0
  1  2  2  0  0  0  0
  2  3  1  0  0  0  0
  3  4  2  0  0  0  0
  4  5  4  0  0  0  0
  5  6  1  0  0  0  0
  6  7  1  0  0  0  0
  7  8  1  0  0  0  0
  8  9  1  0  0  0  0
  9 10  1  0  0  0  0
 10 11  1  0  0  0  0
 11 12  1  0  0  0  0
 12 13  1  0  0  0  0
  5 14  4  0  0  0  0
 14 15  1  0  0  0  0
 15 16  2  0  0  0  0
  3 17  1  0  0  0  0
 14 17  1  0  0  0  0
  1 18  1  0  0  0  0
  1 19  1  0  0  0  0
  2 20  1  0  0  0  0
  4 21  1  0  0  0  0
  6 22  1  0  0  0  0
  6 23  1  0  0  0  0
  7 24  1  0  0  0  0
  7 25  1  0  0  0  0
  8 26  1  0  0  0  0
  8 27  1  0  0  0  0
  9 28  1  0  0  0  0
  9 29  1  0  0  0  0
 10 30  1  0  0  0  0
 10 31  1  0  0  0  0
 11 32  1  0  0  0  0
 11 33  1  0  0  0  0
 12 34  1  0  0  0  0
 12 35  1  0  0  0  0
 13 36  1  0  0  0  0
 13 37  1  0  0  0  0
 13 38  1  0  0  0  0
 15 39  1  0  0  0  0
 16 40  1  0  0  0  0
 16 41  1  0  0  0  0
M  END
