
 OpenBabel02032210433D

 44 46  0  0  0  0  0  0  0  0999 V2000
    2.5455    0.0352    0.0074 C   0  0  0  0  0  0  0  0  0  0  0  0
    1.0466    0.0153    0.0027 C   0  0  0  0  0  0  0  0  0  0  0  0
    0.3409   -1.0515   -0.5544 C   0  0  0  0  0  0  0  0  0  0  0  0
   -1.0591   -1.0324   -0.5972 C   0  0  0  0  0  0  0  0  0  0  0  0
   -1.8030    0.0253   -0.0389 C   0  0  0  0  0  0  0  0  0  0  0  0
   -3.2582    0.0295   -0.0651 N   0  0  0  0  0  0  0  0  0  0  0  0
   -3.9964   -1.2221   -0.0541 C   0  0  0  0  0  0  0  0  0  0  0  0
   -3.5443   -2.3404    0.6642 C   0  0  0  0  0  0  0  0  0  0  0  0
   -4.2385   -3.5560    0.6423 C   0  0  0  0  0  0  0  0  0  0  0  0
   -5.4427   -3.6793   -0.0572 C   0  0  0  0  0  0  0  0  0  0  0  0
   -6.1889   -4.9401   -0.1656 C   0  0  0  0  0  0  0  0  0  0  0  0
   -6.2165   -5.9335    0.7262 C   0  0  0  0  0  0  0  0  0  0  0  0
   -5.5355   -5.8651    1.8884 F   0  0  0  0  0  0  0  0  0  0  0  0
   -6.9576   -7.0294    0.4567 F   0  0  0  0  0  0  0  0  0  0  0  0
   -5.9255   -2.5625   -0.7461 C   0  0  0  0  0  0  0  0  0  0  0  0
   -5.2047   -1.3637   -0.7603 C   0  0  0  0  0  0  0  0  0  0  0  0
   -3.9940    1.2820   -0.0782 C   0  0  0  0  0  0  0  0  0  0  0  0
   -3.5098    2.4245   -0.7402 C   0  0  0  0  0  0  0  0  0  0  0  0
   -4.2083    3.6361   -0.7101 C   0  0  0  0  0  0  0  0  0  0  0  0
   -5.4438    3.7266   -0.0547 C   0  0  0  0  0  0  0  0  0  0  0  0
   -6.1975    5.0190    0.0020 C   0  0  0  0  0  0  0  0  0  0  0  0
   -5.9618    2.5959    0.5648 C   0  0  0  0  0  0  0  0  0  0  0  0
   -5.2402    1.4008    0.5700 C   0  0  0  0  0  0  0  0  0  0  0  0
   -1.0701    1.0741    0.5473 C   0  0  0  0  0  0  0  0  0  0  0  0
    0.3303    1.0851    0.5426 C   0  0  0  0  0  0  0  0  0  0  0  0
    2.9608   -0.9081   -0.3623 H   0  0  0  0  0  0  0  0  0  0  0  0
    2.9202    0.1885    1.0243 H   0  0  0  0  0  0  0  0  0  0  0  0
    2.9111    0.8415   -0.6368 H   0  0  0  0  0  0  0  0  0  0  0  0
    0.8698   -1.9066   -0.9694 H   0  0  0  0  0  0  0  0  0  0  0  0
   -1.5598   -1.8673   -1.0807 H   0  0  0  0  0  0  0  0  0  0  0  0
   -2.6322   -2.2794    1.2571 H   0  0  0  0  0  0  0  0  0  0  0  0
   -3.8087   -4.4008    1.1754 H   0  0  0  0  0  0  0  0  0  0  0  0
   -6.7807   -5.0627   -1.0682 H   0  0  0  0  0  0  0  0  0  0  0  0
   -6.8709   -2.6066   -1.2843 H   0  0  0  0  0  0  0  0  0  0  0  0
   -5.6107   -0.5306   -1.3331 H   0  0  0  0  0  0  0  0  0  0  0  0
   -2.5700    2.3889   -1.2853 H   0  0  0  0  0  0  0  0  0  0  0  0
   -3.7739    4.5082   -1.1934 H   0  0  0  0  0  0  0  0  0  0  0  0
   -5.6539    5.8279   -0.4978 H   0  0  0  0  0  0  0  0  0  0  0  0
   -6.3486    5.3114    1.0458 H   0  0  0  0  0  0  0  0  0  0  0  0
   -7.1700    4.9089   -0.4867 H   0  0  0  0  0  0  0  0  0  0  0  0
   -6.9349    2.6260    1.0450 H   0  0  0  0  0  0  0  0  0  0  0  0
   -5.6701    0.5501    1.0925 H   0  0  0  0  0  0  0  0  0  0  0  0
   -1.5799    1.9089    1.0214 H   0  0  0  0  0  0  0  0  0  0  0  0
    0.8543    1.9364    0.9713 H   0  0  0  0  0  0  0  0  0  0  0  0
  1  2  1  0  0  0  0
  1 26  1  0  0  0  0
  1 27  1  0  0  0  0
  1 28  1  0  0  0  0
  2  3  1  0  0  0  0
  2 25  2  0  0  0  0
  3  4  2  0  0  0  0
  3 29  1  0  0  0  0
  4  5  1  0  0  0  0
  4 30  1  0  0  0  0
  5  6  1  0  0  0  0
  5 24  2  0  0  0  0
  6  7  1  0  0  0  0
  6 17  1  0  0  0  0
  7  8  1  0  0  0  0
  7 16  2  0  0  0  0
  8  9  2  0  0  0  0
  8 31  1  0  0  0  0
  9 10  1  0  0  0  0
  9 32  1  0  0  0  0
 10 11  1  0  0  0  0
 10 15  2  0  0  0  0
 11 12  2  0  0  0  0
 11 33  1  0  0  0  0
 12 13  1  0  0  0  0
 12 14  1  0  0  0  0
 15 16  1  0  0  0  0
 15 34  1  0  0  0  0
 16 35  1  0  0  0  0
 17 18  1  0  0  0  0
 17 23  2  0  0  0  0
 18 19  2  0  0  0  0
 18 36  1  0  0  0  0
 19 20  1  0  0  0  0
 19 37  1  0  0  0  0
 20 21  1  0  0  0  0
 20 22  2  0  0  0  0
 21 38  1  0  0  0  0
 21 39  1  0  0  0  0
 21 40  1  0  0  0  0
 22 23  1  0  0  0  0
 22 41  1  0  0  0  0
 23 42  1  0  0  0  0
 24 25  1  0  0  0  0
 24 43  1  0  0  0  0
 25 44  1  0  0  0  0
M  END
