24

C          0.87112       -0.82070       -0.84825
C          2.04260       -0.26110       -0.52750
C          2.80900        0.60380       -1.44780
C          2.72760        1.99000       -1.58500
C          3.61680        2.50340       -2.53640
C          4.39220        1.52650       -3.15020
C          5.42990        1.75560       -4.16890
C          5.78125        0.87105       -5.18178
C          6.82377        1.33933       -5.99061
C          7.29892        2.59191       -5.60561
C          8.40194        3.36414       -6.21301
C          8.73242        3.27879       -7.50646
S          6.41032        3.11981       -4.27702
S          3.97100        0.02540       -2.51530
H          0.35722       -1.44268       -0.12271
H          0.41043       -0.67587       -1.81880
H          2.45147       -0.44630        0.46049
H          2.05870        2.62050       -1.01710
H          3.69040        3.55960       -2.76260
H          5.30262       -0.08677       -5.33798
H          7.21385        0.76558       -6.81928
H          8.97718        4.02779       -5.57478
H          8.19989        2.63363       -8.19569
H          9.55868        3.86821       -7.89044
24

C          0.80671        0.02675       -0.10546
C          2.04260       -0.26110       -0.52750
C          2.80900        0.60380       -1.44780
C          2.72760        1.99000       -1.58500
C          3.61680        2.50340       -2.53640
C          4.39220        1.52650       -3.15020
C          5.42990        1.75560       -4.16890
C          5.44506        2.79496       -5.09157
C          6.54136        2.74904       -5.96125
C          7.38491        1.66446       -5.72659
C          8.60799        1.29580       -6.46827
C          9.07529        1.99627       -7.50773
S          6.77705        0.78030       -4.42959
S          3.97100        0.02540       -2.51530
H          0.30092       -0.65039        0.57501
H          0.28376        0.92171       -0.42288
H          2.51090       -1.17390       -0.17381
H          2.05870        2.62050       -1.01710
H          3.69040        3.55960       -2.76260
H          4.68923        3.56774       -5.14093
H          6.69346        3.48523       -6.73773
H          9.14921        0.40730       -6.15793
H          8.58074        2.89072       -7.86862
H          9.97676        1.66873       -8.01529
24

C          1.12947        0.20523        0.33107
C          2.04260       -0.26110       -0.52750
C          2.80900        0.60380       -1.44780
C          2.72760        1.99000       -1.58500
C          3.61680        2.50340       -2.53640
C          4.39220        1.52650       -3.15020
C          5.42990        1.75560       -4.16890
C          6.21233        2.89829       -4.28675
C          7.10017        2.85380       -5.36846
C          7.00788        1.67592       -6.10808
C          7.76851        1.30985       -7.32025
C          9.00640        1.75057       -7.57105
S          5.84008        0.68855       -5.40468
S          3.97100        0.02540       -2.51530
H          0.60477       -0.48501        0.98346
H          0.88943        1.26015        0.39958
H          2.23598       -1.32870       -0.54824
H          2.05870        2.62050       -1.01710
H          3.69040        3.55960       -2.76260
H          6.14904        3.74370       -3.61432
H          7.77383        3.66765       -5.59619
H          7.29482        0.65670       -8.04666
H          9.53370        2.40657       -6.88806
H          9.50952        1.45003       -8.48434
24

C          2.45742       -0.57384        0.70478
C          2.04260       -0.26110       -0.52750
C          2.80900        0.60380       -1.44780
C          2.72760        1.99000       -1.58500
C          3.61680        2.50340       -2.53640
C          4.39220        1.52650       -3.15020
C          5.42990        1.75560       -4.16890
C          6.56507        0.97661       -4.35961
C          7.39463        1.44635       -5.38503
C          6.91376        2.60362       -5.99532
C          7.54435        3.37850       -7.08337
C          8.71321        3.04346       -7.64106
S          5.45314        3.02608       -5.27313
S          3.97100        0.02540       -2.51530
H          1.84744       -1.21898        1.32854
H          3.39130       -0.20102        1.10984
H          1.09705       -0.66572       -0.87364
H          2.05870        2.62050       -1.01710
H          3.69040        3.55960       -2.76260
H          6.79392        0.09299       -3.77844
H          8.31752        0.95193       -5.65311
H          7.03634        4.26848       -7.44185
H          9.27151        2.16898       -7.32728
H          9.12720        3.65894       -8.43311
24

C          1.12947        0.20523        0.33107
C          2.04260       -0.26110       -0.52750
C          2.80900        0.60380       -1.44780
C          2.72760        1.99000       -1.58500
C          3.61680        2.50340       -2.53640
C          4.39220        1.52650       -3.15020
C          5.42990        1.75560       -4.16890
C          6.56507        0.97661       -4.35961
C          7.39463        1.44635       -5.38503
C          6.91376        2.60362       -5.99532
C          7.54435        3.37850       -7.08337
C          8.39177        4.39087       -6.86776
S          5.45314        3.02608       -5.27313
S          3.97100        0.02540       -2.51530
H          0.60477       -0.48501        0.98346
H          0.88943        1.26015        0.39958
H          2.23598       -1.32870       -0.54824
H          2.05870        2.62050       -1.01710
H          3.69040        3.55960       -2.76260
H          6.79392        0.09299       -3.77844
H          8.31752        0.95193       -5.65311
H          7.30079        3.11712       -8.10856
H          8.67391        4.70311       -5.86888
H          8.81656        4.92553       -7.71112
24

C          2.45742       -0.57384        0.70478
C          2.04260       -0.26110       -0.52750
C          2.80900        0.60380       -1.44780
C          2.72760        1.99000       -1.58500
C          3.61680        2.50340       -2.53640
C          4.39220        1.52650       -3.15020
C          5.42990        1.75560       -4.16890
C          6.56507        0.97661       -4.35961
C          7.39463        1.44635       -5.38503
C          6.91376        2.60362       -5.99532
C          7.54435        3.37850       -7.08337
C          7.31311        3.14511       -8.38012
S          5.45314        3.02608       -5.27313
S          3.97100        0.02540       -2.51530
H          1.84744       -1.21898        1.32854
H          3.39130       -0.20102        1.10984
H          1.09705       -0.66572       -0.87364
H          2.05870        2.62050       -1.01710
H          3.69040        3.55960       -2.76260
H          6.79392        0.09299       -3.77844
H          8.31752        0.95193       -5.65311
H          8.23578        4.17156       -6.81572
H          6.63620        2.36700       -8.71359
H          7.81361        3.74615       -9.13232
24

C          2.20226       -1.58713       -0.46001
C          2.04260       -0.26110       -0.52750
C          2.80900        0.60380       -1.44780
C          2.72760        1.99000       -1.58500
C          3.61680        2.50340       -2.53640
C          4.39220        1.52650       -3.15020
C          5.42990        1.75560       -4.16890
C          5.78125        0.87105       -5.18178
C          6.82377        1.33933       -5.99061
C          7.29892        2.59191       -5.60561
C          8.40194        3.36414       -6.21301
C          8.22324        4.24219       -7.20629
S          6.41032        3.11981       -4.27702
S          3.97100        0.02540       -2.51530
H          1.60294       -2.16485        0.23599
H          2.91819       -2.11319       -1.08121
H          1.30988        0.20581        0.12266
H          2.05870        2.62050       -1.01710
H          3.69040        3.55960       -2.76260
H          5.30262       -0.08677       -5.33798
H          7.21385        0.76558       -6.81928
H          9.40842        3.20418       -5.83876
H          7.24487        4.44579       -7.62606
H          9.07685        4.77349       -7.61448
24

C          1.71886       -1.52814       -0.80713
C          2.04260       -0.26110       -0.52750
C          2.80900        0.60380       -1.44780
C          2.72760        1.99000       -1.58500
C          3.61680        2.50340       -2.53640
C          4.39220        1.52650       -3.15020
C          5.42990        1.75560       -4.16890
C          5.44506        2.79496       -5.09157
C          6.54136        2.74904       -5.96125
C          7.38491        1.66446       -5.72659
C          8.60799        1.29580       -6.46827
C          9.39599        2.19027       -7.07532
S          6.77705        0.78030       -4.42959
S          3.97100        0.02540       -2.51530
H          1.14949       -2.10759       -0.08782
H          2.00895       -2.00482       -1.73655
H          1.72330        0.15740        0.42145
H          2.05870        2.62050       -1.01710
H          3.69040        3.55960       -2.76260
H          4.68923        3.56774       -5.14093
H          6.69346        3.48523       -6.73773
H          8.87509        0.24528       -6.52944
H          9.18394        3.25302       -7.05399
H         10.27815        1.85420       -7.61048
24

C          0.87112       -0.82070       -0.84825
C          2.04260       -0.26110       -0.52750
C          2.80900        0.60380       -1.44780
C          2.72760        1.99000       -1.58500
C          3.61680        2.50340       -2.53640
C          4.39220        1.52650       -3.15020
C          5.42990        1.75560       -4.16890
C          6.56507        0.97661       -4.35961
C          7.39463        1.44635       -5.38503
C          6.91376        2.60362       -5.99532
C          7.54435        3.37850       -7.08337
C          6.84693        4.07019       -7.99148
S          5.45314        3.02608       -5.27313
S          3.97100        0.02540       -2.51530
H          0.35722       -1.44268       -0.12271
H          0.41043       -0.67587       -1.81880
H          2.45147       -0.44630        0.46049
H          2.05870        2.62050       -1.01710
H          3.69040        3.55960       -2.76260
H          6.79392        0.09299       -3.77844
H          8.31752        0.95193       -5.65311
H          8.62779        3.37929       -7.15276
H          5.76375        4.10804       -7.97930
H          7.37013        4.61424       -8.77111
24

C          2.20226       -1.58713       -0.46001
C          2.04260       -0.26110       -0.52750
C          2.80900        0.60380       -1.44780
C          2.72760        1.99000       -1.58500
C          3.61680        2.50340       -2.53640
C          4.39220        1.52650       -3.15020
C          5.42990        1.75560       -4.16890
C          6.21233        2.89829       -4.28675
C          7.10017        2.85380       -5.36846
C          7.00788        1.67592       -6.10808
C          7.76851        1.30985       -7.32025
C          9.00640        1.75057       -7.57105
S          5.84008        0.68855       -5.40468
S          3.97100        0.02540       -2.51530
H          1.60294       -2.16485        0.23599
H          2.91819       -2.11319       -1.08121
H          1.30988        0.20581        0.12266
H          2.05870        2.62050       -1.01710
H          3.69040        3.55960       -2.76260
H          6.14904        3.74370       -3.61432
H          7.77383        3.66765       -5.59619
H          7.29482        0.65670       -8.04666
H          9.53370        2.40657       -6.88806
H          9.50952        1.45003       -8.48434
