
 OpenBabel02032211253D

 20 20  0  0  0  0  0  0  0  0999 V2000
    1.2390    0.4064    0.6470 C   0  0  0  0  0  0  0  0  0  0  0  0
    2.3181   -0.0273   -0.0140 C   0  0  0  0  0  0  0  0  0  0  0  0
    3.1766    0.8723   -0.8170 C   0  0  0  0  0  0  0  0  0  0  0  0
    4.2878    0.3651   -1.4939 C   0  0  0  0  0  0  0  0  0  0  0  0
    5.1100    1.2181   -2.2598 C   0  0  0  0  0  0  0  0  0  0  0  0
    6.3080    0.6857   -2.9922 C   0  0  0  0  0  0  0  0  0  0  0  0
    6.6800   -0.6028   -3.0307 C   0  0  0  0  0  0  0  0  0  0  0  0
    4.7556    2.5949   -2.3056 C   0  0  0  0  0  0  0  0  0  0  0  0
    5.4910    3.5631   -3.0394 N   0  0  0  0  0  0  0  0  0  0  0  0
    3.6596    3.0209   -1.6223 N   0  0  0  0  0  0  0  0  0  0  0  0
    2.8989    2.1965   -0.9069 N   0  0  0  0  0  0  0  0  0  0  0  0
    0.6412   -0.2932    1.2222 H   0  0  0  0  0  0  0  0  0  0  0  0
    0.9385    1.4490    0.6251 H   0  0  0  0  0  0  0  0  0  0  0  0
    2.5683   -1.0830    0.0449 H   0  0  0  0  0  0  0  0  0  0  0  0
    4.4907   -0.6906   -1.4068 H   0  0  0  0  0  0  0  0  0  0  0  0
    6.9469    1.3568   -3.5461 H   0  0  0  0  0  0  0  0  0  0  0  0
    6.1440   -1.3980   -2.5330 H   0  0  0  0  0  0  0  0  0  0  0  0
    7.5656   -0.8839   -3.5923 H   0  0  0  0  0  0  0  0  0  0  0  0
    6.3267    3.3447   -3.5926 H   0  0  0  0  0  0  0  0  0  0  0  0
    5.1784    4.5449   -3.0325 H   0  0  0  0  0  0  0  0  0  0  0  0
  1  2  2  0  0  0  0
  1 12  1  0  0  0  0
  1 13  1  0  0  0  0
  2  3  1  0  0  0  0
  2 14  1  0  0  0  0
  3  4  1  0  0  0  0
  3 11  2  0  0  0  0
  4  5  2  0  0  0  0
  4 15  1  0  0  0  0
  5  6  1  0  0  0  0
  5  8  1  0  0  0  0
  6  7  2  0  0  0  0
  6 16  1  0  0  0  0
  7 17  1  0  0  0  0
  7 18  1  0  0  0  0
  8  9  1  0  0  0  0
  8 10  2  0  0  0  0
  9 19  1  0  0  0  0
  9 20  1  0  0  0  0
 10 11  1  0  0  0  0
M  END
