
  xtb     02032211363D
 xtb: 6.4.1 (23d549d)
 41 43  0     0  0            999 V2000
    4.0672   -3.0362   -0.5951 C   0  0  0  0  0  0  0  0  0  0  0  0
    4.2515   -1.7338   -0.4206 C   0  0  0  0  0  0  0  0  0  0  0  0
    3.2281   -0.7399   -0.1090 C   0  0  0  0  0  0  0  0  0  0  0  0
    3.5474    0.6092   -0.2404 C   0  0  0  0  0  0  0  0  0  0  0  0
    2.6062    1.5900    0.0515 C   0  0  0  0  0  0  0  0  0  0  0  0
    2.8882    3.0167   -0.0707 C   0  0  0  0  0  0  0  0  0  0  0  0
    3.9902    3.5718   -0.5595 C   0  0  0  0  0  0  0  0  0  0  0  0
    1.3351    1.2042    0.4743 C   0  0  0  0  0  0  0  0  0  0  0  0
    0.9825   -0.1392    0.6146 C   0  0  0  0  0  0  0  0  0  0  0  0
   -0.2541   -0.5432    1.1086 N   0  0  0  0  0  0  0  0  0  0  0  0
   -0.9396   -1.6602    0.4968 C   0  0  0  0  0  0  0  0  0  0  0  0
   -1.7818   -1.2037   -0.7010 C   0  0  0  0  0  0  0  0  0  0  0  0
   -2.8003   -0.1434   -0.2591 C   0  0  0  0  0  0  0  0  0  0  0  0
   -2.0736    1.0046    0.4550 C   0  0  0  0  0  0  0  0  0  0  0  0
   -1.2074    0.4323    1.5829 C   0  0  0  0  0  0  0  0  0  0  0  0
   -3.7582   -0.7546    0.5947 O   0  0  0  0  0  0  0  0  0  0  0  0
   -5.0434   -0.3874    0.1517 C   0  0  0  0  0  0  0  0  0  0  0  0
   -4.8247   -0.1144   -1.3374 C   0  0  0  0  0  0  0  0  0  0  0  0
   -3.5077    0.3847   -1.3721 O   0  0  0  0  0  0  0  0  0  0  0  0
    1.9574   -1.0980    0.3266 C   0  0  0  0  0  0  0  0  0  0  0  0
    4.8878   -3.6921   -0.8312 H   0  0  0  0  0  0  0  0  0  0  0  0
    3.1001   -3.5035   -0.5197 H   0  0  0  0  0  0  0  0  0  0  0  0
    5.2497   -1.3281   -0.5350 H   0  0  0  0  0  0  0  0  0  0  0  0
    4.5369    0.8860   -0.5687 H   0  0  0  0  0  0  0  0  0  0  0  0
    2.0905    3.6635    0.2762 H   0  0  0  0  0  0  0  0  0  0  0  0
    4.8189    2.9945   -0.9314 H   0  0  0  0  0  0  0  0  0  0  0  0
    4.1038    4.6414   -0.6090 H   0  0  0  0  0  0  0  0  0  0  0  0
    0.6201    1.9837    0.6854 H   0  0  0  0  0  0  0  0  0  0  0  0
   -1.6031   -2.1043    1.2453 H   0  0  0  0  0  0  0  0  0  0  0  0
   -0.2272   -2.4148    0.1698 H   0  0  0  0  0  0  0  0  0  0  0  0
   -2.3139   -2.0526   -1.1317 H   0  0  0  0  0  0  0  0  0  0  0  0
   -1.1415   -0.7619   -1.4660 H   0  0  0  0  0  0  0  0  0  0  0  0
   -2.8107    1.7009    0.8569 H   0  0  0  0  0  0  0  0  0  0  0  0
   -1.4670    1.5247   -0.2862 H   0  0  0  0  0  0  0  0  0  0  0  0
   -1.8676   -0.0816    2.2902 H   0  0  0  0  0  0  0  0  0  0  0  0
   -0.6880    1.2258    2.1207 H   0  0  0  0  0  0  0  0  0  0  0  0
   -5.3857    0.5186    0.6708 H   0  0  0  0  0  0  0  0  0  0  0  0
   -5.7273   -1.2113    0.3553 H   0  0  0  0  0  0  0  0  0  0  0  0
   -5.4913    0.6417   -1.7515 H   0  0  0  0  0  0  0  0  0  0  0  0
   -4.9009   -1.0408   -1.9232 H   0  0  0  0  0  0  0  0  0  0  0  0
    1.7385   -2.1418    0.4799 H   0  0  0  0  0  0  0  0  0  0  0  0
  1  2  2  0  0  0  0
  2  3  1  0  0  0  0
  3  4  4  0  0  0  0
  4  5  4  0  0  0  0
  5  6  1  0  0  0  0
  6  7  2  0  0  0  0
  5  8  4  0  0  0  0
  8  9  4  0  0  0  0
  9 10  1  0  0  0  0
 10 11  1  0  0  0  0
 11 12  1  0  0  0  0
 12 13  1  0  0  0  0
 13 14  1  0  0  0  0
 10 15  1  0  0  0  0
 14 15  1  0  0  0  0
 13 16  1  0  0  0  0
 16 17  1  0  0  0  0
 17 18  1  0  0  0  0
 13 19  1  0  0  0  0
 18 19  1  0  0  0  0
  3 20  4  0  0  0  0
  9 20  4  0  0  0  0
  1 21  1  0  0  0  0
  1 22  1  0  0  0  0
  2 23  1  0  0  0  0
  4 24  1  0  0  0  0
  6 25  1  0  0  0  0
  7 26  1  0  0  0  0
  7 27  1  0  0  0  0
  8 28  1  0  0  0  0
 11 29  1  0  0  0  0
 11 30  1  0  0  0  0
 12 31  1  0  0  0  0
 12 32  1  0  0  0  0
 14 33  1  0  0  0  0
 14 34  1  0  0  0  0
 15 35  1  0  0  0  0
 15 36  1  0  0  0  0
 17 37  1  0  0  0  0
 17 38  1  0  0  0  0
 18 39  1  0  0  0  0
 18 40  1  0  0  0  0
 20 41  1  0  0  0  0
M  END
