
  xtb     02032211183D
 xtb: 6.4.1 (23d549d)
 26 26  0     0  0            999 V2000
    1.1429   -0.0084   -0.1433 c   0  0  0  0  0  0  0  0  0  0  0  0
    2.4689    0.0160   -0.0988 c   0  0  0  0  0  0  0  0  0  0  0  0
    3.2656    1.1244    0.4277 c   0  0  0  0  0  0  0  0  0  0  0  0
    4.4618    1.4477   -0.2088 c   0  0  0  0  0  0  0  0  0  0  0  0
    5.2335    2.5350    0.1789 c   0  0  0  0  0  0  0  0  0  0  0  0
    6.5353    2.7752   -0.5177 c   0  0  0  0  0  0  0  0  0  0  0  0
    7.5561    3.0517    0.0444 o   0  0  0  0  0  0  0  0  0  0  0  0
    6.5007    2.6386   -1.8574 o   0  0  0  0  0  0  0  0  0  0  0  0
    4.8183    3.3538    1.2435 c   0  0  0  0  0  0  0  0  0  0  0  0
    5.5946    4.5183    1.6523 c   0  0  0  0  0  0  0  0  0  0  0  0
    5.5876    5.0347    2.8752 c   0  0  0  0  0  0  0  0  0  0  0  0
    3.6168    3.0328    1.8726 c   0  0  0  0  0  0  0  0  0  0  0  0
    2.8603    1.9318    1.5020 c   0  0  0  0  0  0  0  0  0  0  0  0
    1.6495    1.6481    2.3368 c   0  0  0  0  0  0  0  0  0  0  0  0
    0.8484    2.4864    2.6368 o   0  0  0  0  0  0  0  0  0  0  0  0
    1.5494    0.3903    2.8069 o   0  0  0  0  0  0  0  0  0  0  0  0
    0.6110   -0.8379   -0.5759 h   0  0  0  0  0  0  0  0  0  0  0  0
    0.5398    0.8004    0.2353 h   0  0  0  0  0  0  0  0  0  0  0  0
    3.0401   -0.7926   -0.5388 h   0  0  0  0  0  0  0  0  0  0  0  0
    4.7977    0.8115   -1.0183 h   0  0  0  0  0  0  0  0  0  0  0  0
    5.6112    2.4594   -2.1901 h   0  0  0  0  0  0  0  0  0  0  0  0
    6.2333    4.9509    0.8956 h   0  0  0  0  0  0  0  0  0  0  0  0
    5.0131    4.6105    3.6814 h   0  0  0  0  0  0  0  0  0  0  0  0
    6.1851    5.8954    3.1190 h   0  0  0  0  0  0  0  0  0  0  0  0
    3.2505    3.6531    2.6758 h   0  0  0  0  0  0  0  0  0  0  0  0
    2.2434   -0.1895    2.4665 h   0  0  0  0  0  0  0  0  0  0  0  0
  1  2  2  0  0  0  0
  2  3  1  0  0  0  0
  3  4  4  0  0  0  0
  4  5  4  0  0  0  0
  5  6  1  0  0  0  0
  6  7  2  0  0  0  0
  6  8  1  0  0  0  0
  5  9  4  0  0  0  0
  9 10  1  0  0  0  0
 10 11  2  0  0  0  0
  9 12  4  0  0  0  0
  3 13  4  0  0  0  0
 12 13  4  0  0  0  0
 13 14  1  0  0  0  0
 14 15  2  0  0  0  0
 14 16  1  0  0  0  0
  1 17  1  0  0  0  0
  1 18  1  0  0  0  0
  2 19  1  0  0  0  0
  4 20  1  0  0  0  0
  8 21  1  0  0  0  0
 10 22  1  0  0  0  0
 11 23  1  0  0  0  0
 11 24  1  0  0  0  0
 12 25  1  0  0  0  0
 16 26  1  0  0  0  0
M  END
