37

C          2.51761        0.00836        0.00375
C          1.01751       -0.00139       -0.00416
C          0.30577       -1.20694        0.04114
C         -1.09174       -1.20353        0.03222
C         -1.81590        0.00790       -0.02630
N         -3.26340        0.01400       -0.04320
C         -3.99920       -1.23040       -0.00010
C         -5.27668       -1.30486        0.59982
C         -5.98180       -2.51110        0.63469
C         -5.42885       -3.66468        0.07900
C         -4.16882       -3.61447       -0.51632
C         -3.46015       -2.41156       -0.55956
C         -3.98200        1.26730       -0.11560
C         -5.24364        1.34977       -0.74655
C         -5.93609        2.56227       -0.80652
C         -5.38416        3.71405       -0.24563
C         -4.13860        3.65597        0.37918
C         -3.44327        2.44591        0.44782
C         -1.08215        1.21408       -0.07149
C          0.31494        1.20750       -0.05908
H          2.93224       -1.02122        0.04653
H          2.88275        0.57151        0.88813
H          2.89203        0.49916       -0.91936
H          0.83074       -2.15345        0.08011
H         -1.60285       -2.15662        0.05266
H         -5.74124       -0.42680        1.02827
H         -6.96254       -2.55067        1.09281
H         -5.97623       -4.59803        0.10907
H         -3.73771       -4.51052       -0.94432
H         -2.47995       -2.41189       -1.01700
H         -5.70681        0.47281       -1.17857
H         -6.90494        2.60741       -1.28694
H         -5.92201        4.65197       -0.29475
H         -3.70897        4.55072        0.81078
H         -2.47411        2.43832        0.92902
H         -1.58625        2.17071       -0.10212
H          0.85076        2.14831       -0.09084
37

C          2.51695       -0.01614        0.05148
C          1.01726       -0.00080        0.01756
C          0.32319        1.01796       -0.64755
C         -1.07415        1.02225       -0.67150
C         -1.81590        0.00790       -0.02630
N         -3.26340        0.01400       -0.04320
C         -3.99920       -1.23040       -0.00010
C         -5.27668       -1.30486        0.59982
C         -5.98180       -2.51110        0.63469
C         -5.42885       -3.66468        0.07900
C         -4.16882       -3.61447       -0.51632
C         -3.46015       -2.41156       -0.55956
C         -3.98200        1.26730       -0.11560
C         -3.29453        2.50058       -0.17086
C         -3.99480        3.70760       -0.24822
C         -5.38961        3.70973       -0.26630
C         -6.08836        2.50404       -0.20940
C         -5.39467        1.29322       -0.13768
C         -1.09984       -1.01150        0.63956
C          0.29719       -1.01482        0.65889
H          2.94645        0.84986       -0.49567
H          2.89159       -0.94973       -0.41824
H          2.86641        0.02615        1.10471
H          0.86178        1.81398       -1.14680
H         -1.57160        1.83533       -1.18283
H         -5.74124       -0.42680        1.02827
H         -6.96254       -2.55067        1.09281
H         -5.97623       -4.59803        0.10907
H         -3.73771       -4.51052       -0.94432
H         -2.47995       -2.41189       -1.01700
H         -2.21328        2.53393       -0.17362
H         -3.45343        4.64356       -0.29728
H         -5.92933        4.64603       -0.32486
H         -7.17064        2.50640       -0.21949
H         -5.96752        0.37687       -0.08275
H         -1.61754       -1.82051        1.13723
H          0.81930       -1.81163        1.17437
37

C          2.51695       -0.01614        0.05148
C          1.01726       -0.00080        0.01756
C          0.32319        1.01796       -0.64755
C         -1.07415        1.02225       -0.67150
C         -1.81590        0.00790       -0.02630
N         -3.26340        0.01400       -0.04320
C         -3.99920       -1.23040       -0.00010
C         -3.33074       -2.47421        0.05913
C         -4.04986       -3.67184        0.10309
C         -5.44439       -3.65531        0.08420
C         -6.12448       -2.43940        0.02402
C         -5.41285       -1.23809       -0.01508
C         -3.98200        1.26730       -0.11560
C         -5.24364        1.34977       -0.74655
C         -5.93609        2.56227       -0.80652
C         -5.38416        3.71405       -0.24563
C         -4.13860        3.65597        0.37918
C         -3.44327        2.44591        0.44782
C         -1.09984       -1.01150        0.63956
C          0.29719       -1.01482        0.65889
H          2.94645        0.84986       -0.49567
H          2.89159       -0.94973       -0.41824
H          2.86641        0.02615        1.10471
H          0.86178        1.81398       -1.14680
H         -1.57160        1.83533       -1.18283
H         -2.25043       -2.52341        0.08901
H         -3.52306       -4.61690        0.15435
H         -5.99889       -4.58438        0.11639
H         -7.20680       -2.42638        0.00548
H         -5.97232       -0.31426       -0.07503
H         -5.70681        0.47281       -1.17857
H         -6.90494        2.60741       -1.28694
H         -5.92201        4.65197       -0.29475
H         -3.70897        4.55072        0.81078
H         -2.47411        2.43832        0.92902
H         -1.61754       -1.82051        1.13723
H          0.81930       -1.81163        1.17437
37

C          2.51695       -0.01614        0.05148
C          1.01726       -0.00080        0.01756
C          0.32319        1.01796       -0.64755
C         -1.07415        1.02225       -0.67150
C         -1.81590        0.00790       -0.02630
N         -3.26340        0.01400       -0.04320
C         -3.99920       -1.23040       -0.00010
C         -5.27668       -1.30486        0.59982
C         -5.98180       -2.51110        0.63469
C         -5.42885       -3.66468        0.07900
C         -4.16882       -3.61447       -0.51632
C         -3.46015       -2.41156       -0.55956
C         -3.98200        1.26730       -0.11560
C         -5.24364        1.34977       -0.74655
C         -5.93609        2.56227       -0.80652
C         -5.38416        3.71405       -0.24563
C         -4.13860        3.65597        0.37918
C         -3.44327        2.44591        0.44782
C         -1.09984       -1.01150        0.63956
C          0.29719       -1.01482        0.65889
H          2.94645        0.84986       -0.49567
H          2.89159       -0.94973       -0.41824
H          2.86641        0.02615        1.10471
H          0.86178        1.81398       -1.14680
H         -1.57160        1.83533       -1.18283
H         -5.74124       -0.42680        1.02827
H         -6.96254       -2.55067        1.09281
H         -5.97623       -4.59803        0.10907
H         -3.73771       -4.51052       -0.94432
H         -2.47995       -2.41189       -1.01700
H         -5.70681        0.47281       -1.17857
H         -6.90494        2.60741       -1.28694
H         -5.92201        4.65197       -0.29475
H         -3.70897        4.55072        0.81078
H         -2.47411        2.43832        0.92902
H         -1.61754       -1.82051        1.13723
H          0.81930       -1.81163        1.17437
37

C          2.51761        0.00836        0.00375
C          1.01751       -0.00139       -0.00416
C          0.30577       -1.20694        0.04114
C         -1.09174       -1.20353        0.03222
C         -1.81590        0.00790       -0.02630
N         -3.26340        0.01400       -0.04320
C         -3.99920       -1.23040       -0.00010
C         -3.47386       -2.36906        0.65174
C         -4.19299       -3.56686        0.69073
C         -5.44342       -3.65605        0.07935
C         -5.98004       -2.54542       -0.57113
C         -5.26961       -1.34340       -0.61001
C         -3.98200        1.26730       -0.11560
C         -3.42514        2.39131       -0.76611
C         -4.12790        3.59716       -0.83898
C         -5.39305        3.70801       -0.26199
C         -5.96024        2.61200        0.38781
C         -5.26573        1.40165        0.45954
C         -1.08215        1.21408       -0.07149
C          0.31494        1.20750       -0.05908
H          2.93224       -1.02122        0.04653
H          2.88275        0.57151        0.88813
H          2.89203        0.49916       -0.91936
H          0.83074       -2.15345        0.08011
H         -1.60285       -2.15662        0.05266
H         -2.51324       -2.33134        1.14790
H         -3.77944       -4.42911        1.19944
H         -5.99742       -4.58549        0.10935
H         -6.94886       -2.61543       -1.04906
H         -5.70984       -0.50617       -1.13471
H         -2.45275        2.33521       -1.23678
H         -3.69066        4.44689       -1.34721
H         -5.93442        4.64347       -0.31874
H         -6.94023        2.69964        0.83877
H         -5.72943        0.57485        0.98133
H         -1.58625        2.17071       -0.10212
H          0.85076        2.14831       -0.09084
37

C          2.51750        0.01607        0.01570
C          1.01750        0.00368       -0.00142
C          0.31338       -1.07018       -0.56089
C         -1.08412       -1.07011       -0.57201
C         -1.81590        0.00790       -0.02630
N         -3.26340        0.01400       -0.04320
C         -3.99920       -1.23040       -0.00010
C         -3.47386       -2.36906        0.65174
C         -4.19299       -3.56686        0.69073
C         -5.44342       -3.65605        0.07935
C         -5.98004       -2.54542       -0.57113
C         -5.26961       -1.34340       -0.61001
C         -3.98200        1.26730       -0.11560
C         -3.29453        2.50058       -0.17086
C         -3.99480        3.70760       -0.24822
C         -5.38961        3.70973       -0.26630
C         -6.08836        2.50404       -0.20940
C         -5.39467        1.29322       -0.13768
C         -1.08977        1.08236        0.53367
C          0.30733        1.07781        0.54625
H          2.93861       -0.89772       -0.45486
H          2.87858        0.06997        1.06418
H          2.88933        0.90117       -0.54248
H          0.84430       -1.90931       -0.99329
H         -1.58920       -1.91120       -1.02750
H         -2.51324       -2.33134        1.14790
H         -3.77944       -4.42911        1.19944
H         -5.99742       -4.58549        0.10935
H         -6.94886       -2.61543       -1.04906
H         -5.70984       -0.50617       -1.13471
H         -2.21328        2.53393       -0.17362
H         -3.45343        4.64356       -0.29728
H         -5.92933        4.64603       -0.32486
H         -7.17064        2.50640       -0.21949
H         -5.96752        0.37687       -0.08275
H         -1.59990        1.92628        0.97839
H          0.83720        1.91396        0.98591
37

C          2.51750        0.01607        0.01570
C          1.01750        0.00368       -0.00142
C          0.31338       -1.07018       -0.56089
C         -1.08412       -1.07011       -0.57201
C         -1.81590        0.00790       -0.02630
N         -3.26340        0.01400       -0.04320
C         -3.99920       -1.23040       -0.00010
C         -3.33074       -2.47421        0.05913
C         -4.04986       -3.67184        0.10309
C         -5.44439       -3.65531        0.08420
C         -6.12448       -2.43940        0.02402
C         -5.41285       -1.23809       -0.01508
C         -3.98200        1.26730       -0.11560
C         -3.42514        2.39131       -0.76611
C         -4.12790        3.59716       -0.83898
C         -5.39305        3.70801       -0.26199
C         -5.96024        2.61200        0.38781
C         -5.26573        1.40165        0.45954
C         -1.08977        1.08236        0.53367
C          0.30733        1.07781        0.54625
H          2.93861       -0.89772       -0.45486
H          2.87858        0.06997        1.06418
H          2.88933        0.90117       -0.54248
H          0.84430       -1.90931       -0.99329
H         -1.58920       -1.91120       -1.02750
H         -2.25043       -2.52341        0.08901
H         -3.52306       -4.61690        0.15435
H         -5.99889       -4.58438        0.11639
H         -7.20680       -2.42638        0.00548
H         -5.97232       -0.31426       -0.07503
H         -2.45275        2.33521       -1.23678
H         -3.69066        4.44689       -1.34721
H         -5.93442        4.64347       -0.31874
H         -6.94023        2.69964        0.83877
H         -5.72943        0.57485        0.98133
H         -1.59990        1.92628        0.97839
H          0.83720        1.91396        0.98591
37

C          2.51750        0.01607        0.01570
C          1.01750        0.00368       -0.00142
C          0.31338       -1.07018       -0.56089
C         -1.08412       -1.07011       -0.57201
C         -1.81590        0.00790       -0.02630
N         -3.26340        0.01400       -0.04320
C         -3.99920       -1.23040       -0.00010
C         -3.47386       -2.36906        0.65174
C         -4.19299       -3.56686        0.69073
C         -5.44342       -3.65605        0.07935
C         -5.98004       -2.54542       -0.57113
C         -5.26961       -1.34340       -0.61001
C         -3.98200        1.26730       -0.11560
C         -3.42514        2.39131       -0.76611
C         -4.12790        3.59716       -0.83898
C         -5.39305        3.70801       -0.26199
C         -5.96024        2.61200        0.38781
C         -5.26573        1.40165        0.45954
C         -1.08977        1.08236        0.53367
C          0.30733        1.07781        0.54625
H          2.93861       -0.89772       -0.45486
H          2.87858        0.06997        1.06418
H          2.88933        0.90117       -0.54248
H          0.84430       -1.90931       -0.99329
H         -1.58920       -1.91120       -1.02750
H         -2.51324       -2.33134        1.14790
H         -3.77944       -4.42911        1.19944
H         -5.99742       -4.58549        0.10935
H         -6.94886       -2.61543       -1.04906
H         -5.70984       -0.50617       -1.13471
H         -2.45275        2.33521       -1.23678
H         -3.69066        4.44689       -1.34721
H         -5.93442        4.64347       -0.31874
H         -6.94023        2.69964        0.83877
H         -5.72943        0.57485        0.98133
H         -1.59990        1.92628        0.97839
H          0.83720        1.91396        0.98591
