
  xtb     02032211363D
 xtb: 6.4.1 (23d549d)
 25 26  0     0  0            999 V2000
    3.8905    0.1797    0.6640 C   0  0  0  0  0  0  0  0  0  0  0  0
    3.0739   -0.4350   -0.1805 C   0  0  0  0  0  0  0  0  0  0  0  0
    1.6048   -0.3554   -0.1681 C   0  0  0  0  0  0  0  0  0  0  0  0
    0.9075   -1.5516   -0.1788 C   0  0  0  0  0  0  0  0  0  0  0  0
   -0.4774   -1.5200   -0.1038 C   0  0  0  0  0  0  0  0  0  0  0  0
   -1.3949   -2.5433   -0.1069 N   0  0  0  0  0  0  0  0  0  0  0  0
   -2.5510   -1.9671   -0.0542 C   0  0  0  0  0  0  0  0  0  0  0  0
   -2.4814   -0.6028   -0.0023 N   0  0  0  0  0  0  0  0  0  0  0  0
   -1.1499   -0.2800   -0.0334 C   0  0  0  0  0  0  0  0  0  0  0  0
   -0.4789    0.9423   -0.0674 C   0  0  0  0  0  0  0  0  0  0  0  0
   -1.1919    2.2169   -0.0775 C   0  0  0  0  0  0  0  0  0  0  0  0
   -2.2954    2.4847    0.6105 C   0  0  0  0  0  0  0  0  0  0  0  0
    0.9227    0.8876   -0.1388 C   0  0  0  0  0  0  0  0  0  0  0  0
    1.6360    2.0634   -0.2661 N   0  0  0  0  0  0  0  0  0  0  0  0
    4.9581    0.0445    0.6173 H   0  0  0  0  0  0  0  0  0  0  0  0
    3.5296    0.8138    1.4588 H   0  0  0  0  0  0  0  0  0  0  0  0
    3.4870   -1.1130   -0.9178 H   0  0  0  0  0  0  0  0  0  0  0  0
    1.4316   -2.4932   -0.2190 H   0  0  0  0  0  0  0  0  0  0  0  0
   -3.4879   -2.4902   -0.0435 H   0  0  0  0  0  0  0  0  0  0  0  0
   -3.2493    0.0465   -0.0151 H   0  0  0  0  0  0  0  0  0  0  0  0
   -0.7677    2.9827   -0.7164 H   0  0  0  0  0  0  0  0  0  0  0  0
   -2.7299    1.7779    1.2986 H   0  0  0  0  0  0  0  0  0  0  0  0
   -2.7869    3.4404    0.5406 H   0  0  0  0  0  0  0  0  0  0  0  0
    1.2437    2.8855    0.1585 H   0  0  0  0  0  0  0  0  0  0  0  0
    2.6358    1.9767   -0.1881 H   0  0  0  0  0  0  0  0  0  0  0  0
  1  2  2  0  0  0  0
  2  3  1  0  0  0  0
  3  4  4  0  0  0  0
  4  5  4  0  0  0  0
  5  6  1  0  0  0  0
  6  7  2  0  0  0  0
  7  8  4  0  0  0  0
  5  9  4  0  0  0  0
  8  9  1  0  0  0  0
  9 10  4  0  0  0  0
 10 11  1  0  0  0  0
 11 12  2  0  0  0  0
  3 13  4  0  0  0  0
 10 13  4  0  0  0  0
 13 14  1  0  0  0  0
  1 15  1  0  0  0  0
  1 16  1  0  0  0  0
  2 17  1  0  0  0  0
  4 18  1  0  0  0  0
  7 19  1  0  0  0  0
  8 20  1  0  0  0  0
 11 21  1  0  0  0  0
 12 22  1  0  0  0  0
 12 23  1  0  0  0  0
 14 24  1  0  0  0  0
 14 25  1  0  0  0  0
M  END
