
  xtb     02032211353D
 xtb: 6.4.1 (23d549d)
 20 20  0     0  0            999 V2000
    4.0645   -0.3534   -0.0242 C   0  0  0  0  0  0  0  0  0  0  0  0
    3.1182    0.5787   -0.0228 C   0  0  0  0  0  0  0  0  0  0  0  0
    1.6803    0.3539   -0.0076 C   0  0  0  0  0  0  0  0  0  0  0  0
    0.8207    1.4536   -0.0072 C   0  0  0  0  0  0  0  0  0  0  0  0
   -0.5428    1.2668    0.0078 C   0  0  0  0  0  0  0  0  0  0  0  0
   -1.3245    2.3672    0.0075 F   0  0  0  0  0  0  0  0  0  0  0  0
   -1.1601    0.0088    0.0185 C   0  0  0  0  0  0  0  0  0  0  0  0
   -2.6131   -0.0773    0.0350 C   0  0  0  0  0  0  0  0  0  0  0  0
   -3.3575   -1.1702   -0.0955 C   0  0  0  0  0  0  0  0  0  0  0  0
   -0.2645   -1.0670    0.0210 C   0  0  0  0  0  0  0  0  0  0  0  0
   -0.7326   -2.3314    0.0465 F   0  0  0  0  0  0  0  0  0  0  0  0
    1.1052   -0.9166    0.0090 C   0  0  0  0  0  0  0  0  0  0  0  0
    5.1073   -0.0878   -0.0361 H   0  0  0  0  0  0  0  0  0  0  0  0
    3.8476   -1.4074   -0.0137 H   0  0  0  0  0  0  0  0  0  0  0  0
    3.4077    1.6218   -0.0339 H   0  0  0  0  0  0  0  0  0  0  0  0
    1.2094    2.4602   -0.0178 H   0  0  0  0  0  0  0  0  0  0  0  0
   -3.1035    0.8801    0.1569 H   0  0  0  0  0  0  0  0  0  0  0  0
   -2.9485   -2.1543   -0.2338 H   0  0  0  0  0  0  0  0  0  0  0  0
   -4.4318   -1.1025   -0.0696 H   0  0  0  0  0  0  0  0  0  0  0  0
    1.7137   -1.8059    0.0144 H   0  0  0  0  0  0  0  0  0  0  0  0
  1  2  2  0  0  0  0
  2  3  1  0  0  0  0
  3  4  4  0  0  0  0
  4  5  4  0  0  0  0
  5  6  1  0  0  0  0
  5  7  4  0  0  0  0
  7  8  1  0  0  0  0
  8  9  2  0  0  0  0
  7 10  4  0  0  0  0
 10 11  1  0  0  0  0
  3 12  4  0  0  0  0
 10 12  4  0  0  0  0
  1 13  1  0  0  0  0
  1 14  1  0  0  0  0
  2 15  1  0  0  0  0
  4 16  1  0  0  0  0
  8 17  1  0  0  0  0
  9 18  1  0  0  0  0
  9 19  1  0  0  0  0
 12 20  1  0  0  0  0
M  END
