
 OpenBabel02032211263D

 21 22  0  0  0  0  0  0  0  0999 V2000
    1.1950   -0.2434   -0.3698 C   0  0  0  0  0  0  0  0  0  0  0  0
    2.3871    0.1199    0.1235 C   0  0  0  0  0  0  0  0  0  0  0  0
    3.1364   -0.5438    1.2415 C   0  0  0  0  0  0  0  0  0  0  0  0
    2.6788   -1.6866    1.9443 C   0  0  0  0  0  0  0  0  0  0  0  0
    1.4992   -2.2807    1.6473 F   0  0  0  0  0  0  0  0  0  0  0  0
    3.4322   -2.2588    2.9859 C   0  0  0  0  0  0  0  0  0  0  0  0
    2.9057   -3.3488    3.5920 F   0  0  0  0  0  0  0  0  0  0  0  0
    4.6822   -1.7177    3.3786 C   0  0  0  0  0  0  0  0  0  0  0  0
    5.5377   -2.2727    4.4795 C   0  0  0  0  0  0  0  0  0  0  0  0
    5.2618   -3.3318    5.2533 C   0  0  0  0  0  0  0  0  0  0  0  0
    5.1402   -0.5854    2.6830 C   0  0  0  0  0  0  0  0  0  0  0  0
    6.3206    0.0330    2.9566 N   0  0  0  0  0  0  0  0  0  0  0  0
    6.3466    1.2696    1.8657 S   0  0  0  0  0  0  0  0  0  0  0  0
    4.9323    1.0873    1.0373 N   0  0  0  0  0  0  0  0  0  0  0  0
    4.3764   -0.0053    1.6268 C   0  0  0  0  0  0  0  0  0  0  0  0
    0.7644    0.3301   -1.1847 H   0  0  0  0  0  0  0  0  0  0  0  0
    0.6167   -1.0789   -0.0118 H   0  0  0  0  0  0  0  0  0  0  0  0
    2.8418    0.9875   -0.3459 H   0  0  0  0  0  0  0  0  0  0  0  0
    6.4816   -1.7767    4.6863 H   0  0  0  0  0  0  0  0  0  0  0  0
    4.3673   -3.9271    5.1747 H   0  0  0  0  0  0  0  0  0  0  0  0
    5.9737   -3.6259    6.0182 H   0  0  0  0  0  0  0  0  0  0  0  0
  1  2  2  0  0  0  0
  1 16  1  0  0  0  0
  1 17  1  0  0  0  0
  2  3  1  0  0  0  0
  2 18  1  0  0  0  0
  3  4  2  0  0  0  0
  3 15  1  0  0  0  0
  4  5  1  0  0  0  0
  4  6  1  0  0  0  0
  6  7  1  0  0  0  0
  6  8  2  0  0  0  0
  8  9  1  0  0  0  0
  8 11  1  0  0  0  0
  9 10  2  0  0  0  0
  9 19  1  0  0  0  0
 10 20  1  0  0  0  0
 10 21  1  0  0  0  0
 11 12  2  0  0  0  0
 11 15  1  0  0  0  0
 12 13  1  0  0  0  0
 13 14  1  0  0  0  0
 14 15  2  0  0  0  0
M  END
