
  xtb     02032211353D
 xtb: 6.4.1 (23d549d)
 23 23  0     0  0            999 V2000
   -4.0246    0.3095   -0.0223 C   0  0  0  0  0  0  0  0  0  0  0  0
   -3.2407   -0.7573   -0.1164 C   0  0  0  0  0  0  0  0  0  0  0  0
   -1.7850   -0.6952   -0.0443 C   0  0  0  0  0  0  0  0  0  0  0  0
   -1.0199   -1.8672   -0.0730 C   0  0  0  0  0  0  0  0  0  0  0  0
    0.3551   -1.7578   -0.0448 C   0  0  0  0  0  0  0  0  0  0  0  0
    0.9458   -0.4986    0.0180 C   0  0  0  0  0  0  0  0  0  0  0  0
    2.4356   -0.4288   -0.0144 C   0  0  0  0  0  0  0  0  0  0  0  0
    2.9417    0.5001   -0.8649 N   0  0  0  0  0  0  0  0  0  0  0  0
    3.1443   -1.1659    0.6359 O   0  0  0  0  0  0  0  0  0  0  0  0
    0.0989    0.6210    0.1175 C   0  0  0  0  0  0  0  0  0  0  0  0
    0.6204    1.9720    0.3289 C   0  0  0  0  0  0  0  0  0  0  0  0
   -0.0990    3.0651    0.1099 C   0  0  0  0  0  0  0  0  0  0  0  0
   -1.2204    0.5010    0.0660 N   0  0  0  0  0  0  0  0  0  0  0  0
   -5.0972    0.2376   -0.0764 H   0  0  0  0  0  0  0  0  0  0  0  0
   -3.5972    1.2874    0.1164 H   0  0  0  0  0  0  0  0  0  0  0  0
   -3.6584   -1.7467   -0.2485 H   0  0  0  0  0  0  0  0  0  0  0  0
   -1.5000   -2.8326   -0.1201 H   0  0  0  0  0  0  0  0  0  0  0  0
    0.9898   -2.6315   -0.0782 H   0  0  0  0  0  0  0  0  0  0  0  0
    2.3543    1.0765   -1.4403 H   0  0  0  0  0  0  0  0  0  0  0  0
    3.9412    0.5680   -0.9634 H   0  0  0  0  0  0  0  0  0  0  0  0
    1.6346    2.0380    0.6984 H   0  0  0  0  0  0  0  0  0  0  0  0
   -1.1077    2.9905   -0.2577 H   0  0  0  0  0  0  0  0  0  0  0  0
    0.2926    4.0514    0.2901 H   0  0  0  0  0  0  0  0  0  0  0  0
  1  2  2  0  0  0  0
  2  3  1  0  0  0  0
  3  4  4  0  0  0  0
  4  5  4  0  0  0  0
  5  6  4  0  0  0  0
  6  7  1  0  0  0  0
  7  8  4  0  0  0  0
  7  9  2  0  0  0  0
  6 10  4  0  0  0  0
 10 11  1  0  0  0  0
 11 12  2  0  0  0  0
  3 13  4  0  0  0  0
 10 13  4  0  0  0  0
  1 14  1  0  0  0  0
  1 15  1  0  0  0  0
  2 16  1  0  0  0  0
  4 17  1  0  0  0  0
  5 18  1  0  0  0  0
  8 19  1  0  0  0  0
  8 20  1  0  0  0  0
 11 21  1  0  0  0  0
 12 22  1  0  0  0  0
 12 23  1  0  0  0  0
M  END
