
  xtb     02032211353D
 xtb: 6.4.1 (23d549d)
 22 22  0     0  0            999 V2000
    3.5032    0.6680   -0.3714 C   0  0  0  0  0  0  0  0  0  0  0  0
    2.7187   -0.2088    0.2442 C   0  0  0  0  0  0  0  0  0  0  0  0
    1.2626   -0.2978    0.1331 C   0  0  0  0  0  0  0  0  0  0  0  0
    0.6975   -1.5705    0.1148 C   0  0  0  0  0  0  0  0  0  0  0  0
   -0.6660   -1.7155   -0.0218 C   0  0  0  0  0  0  0  0  0  0  0  0
   -1.1985   -2.9618   -0.0531 F   0  0  0  0  0  0  0  0  0  0  0  0
   -1.5019   -0.6243   -0.1387 C   0  0  0  0  0  0  0  0  0  0  0  0
   -0.9681    0.6580   -0.0947 C   0  0  0  0  0  0  0  0  0  0  0  0
   -1.8451    1.8196   -0.2468 C   0  0  0  0  0  0  0  0  0  0  0  0
   -3.0969    1.8870    0.1864 C   0  0  0  0  0  0  0  0  0  0  0  0
    0.4232    0.8314    0.0635 C   0  0  0  0  0  0  0  0  0  0  0  0
    0.9481    2.1051    0.1504 N   0  0  0  0  0  0  0  0  0  0  0  0
    4.5732    0.6408   -0.2501 H   0  0  0  0  0  0  0  0  0  0  0  0
    3.1185    1.4083   -1.0522 H   0  0  0  0  0  0  0  0  0  0  0  0
    3.1696   -0.9803    0.8574 H   0  0  0  0  0  0  0  0  0  0  0  0
    1.3253   -2.4450    0.1865 H   0  0  0  0  0  0  0  0  0  0  0  0
   -2.5601   -0.7722   -0.2797 H   0  0  0  0  0  0  0  0  0  0  0  0
   -1.4171    2.6657   -0.7705 H   0  0  0  0  0  0  0  0  0  0  0  0
   -3.5586    1.0792    0.7288 H   0  0  0  0  0  0  0  0  0  0  0  0
   -3.7046    2.7608    0.0243 H   0  0  0  0  0  0  0  0  0  0  0  0
    0.3139    2.8147    0.4802 H   0  0  0  0  0  0  0  0  0  0  0  0
    1.8726    2.1571    0.5510 H   0  0  0  0  0  0  0  0  0  0  0  0
  1  2  2  0  0  0  0
  2  3  1  0  0  0  0
  3  4  4  0  0  0  0
  4  5  4  0  0  0  0
  5  6  1  0  0  0  0
  5  7  4  0  0  0  0
  7  8  4  0  0  0  0
  8  9  1  0  0  0  0
  9 10  2  0  0  0  0
  3 11  4  0  0  0  0
  8 11  4  0  0  0  0
 11 12  1  0  0  0  0
  1 13  1  0  0  0  0
  1 14  1  0  0  0  0
  2 15  1  0  0  0  0
  4 16  1  0  0  0  0
  7 17  1  0  0  0  0
  9 18  1  0  0  0  0
 10 19  1  0  0  0  0
 10 20  1  0  0  0  0
 12 21  1  0  0  0  0
 12 22  1  0  0  0  0
M  END
