
 OpenBabel02032210553D

 21 22  0  0  0  0  0  0  0  0999 V2000
    1.0754   -0.1820   -0.2163 C   0  0  0  0  0  0  0  0  0  0  0  0
    2.3837    0.0287   -0.0173 C   0  0  0  0  0  0  0  0  0  0  0  0
    3.1140   -0.3975    1.1793 C   0  0  0  0  0  0  0  0  0  0  0  0
    2.7805   -1.5318    1.9503 C   0  0  0  0  0  0  0  0  0  0  0  0
    3.5147   -1.9494    3.0842 C   0  0  0  0  0  0  0  0  0  0  0  0
    4.6579   -1.2778    3.5626 C   0  0  0  0  0  0  0  0  0  0  0  0
    5.4558   -1.7163    4.7095 C   0  0  0  0  0  0  0  0  0  0  0  0
    4.9656   -2.3771    5.7665 C   0  0  0  0  0  0  0  0  0  0  0  0
    5.0703   -0.1366    2.8101 C   0  0  0  0  0  0  0  0  0  0  0  0
    6.1367    0.6474    3.0529 N   0  0  0  0  0  0  0  0  0  0  0  0
    6.1447    1.8262    1.8909 S   0  0  0  0  0  0  0  0  0  0  0  0
    4.8117    1.4042    1.0058 N   0  0  0  0  0  0  0  0  0  0  0  0
    4.2807    0.3133    1.5912 C   0  0  0  0  0  0  0  0  0  0  0  0
    0.5973    0.1656   -1.1266 H   0  0  0  0  0  0  0  0  0  0  0  0
    0.4435   -0.6795    0.5112 H   0  0  0  0  0  0  0  0  0  0  0  0
    2.9578    0.5634   -0.7725 H   0  0  0  0  0  0  0  0  0  0  0  0
    1.9234   -2.1388    1.6590 H   0  0  0  0  0  0  0  0  0  0  0  0
    3.1750   -2.8511    3.5946 H   0  0  0  0  0  0  0  0  0  0  0  0
    6.5139   -1.4598    4.6897 H   0  0  0  0  0  0  0  0  0  0  0  0
    3.9166   -2.6365    5.8658 H   0  0  0  0  0  0  0  0  0  0  0  0
    5.6213   -2.6622    6.5837 H   0  0  0  0  0  0  0  0  0  0  0  0
  1  2  2  0  0  0  0
  1 14  1  0  0  0  0
  1 15  1  0  0  0  0
  2  3  1  0  0  0  0
  2 16  1  0  0  0  0
  3  4  2  0  0  0  0
  3 13  1  0  0  0  0
  4  5  1  0  0  0  0
  4 17  1  0  0  0  0
  5  6  2  0  0  0  0
  5 18  1  0  0  0  0
  6  7  1  0  0  0  0
  6  9  1  0  0  0  0
  7  8  2  0  0  0  0
  7 19  1  0  0  0  0
  8 20  1  0  0  0  0
  8 21  1  0  0  0  0
  9 10  2  0  0  0  0
  9 13  1  0  0  0  0
 10 11  1  0  0  0  0
 11 12  1  0  0  0  0
 12 13  2  0  0  0  0
M  END
