
  xtb     02012213453D
 xtb: 6.4.1 (23d549d)
 18 18  0     0  0            999 V2000
    2.5097    1.0778    0.0096 c   0  0  0  0  0  0  0  0  0  0  0  0
    1.2085    0.3325    0.0050 c   0  0  0  0  0  0  0  0  0  0  0  0
   -0.0040    1.0074    0.0008 c   0  0  0  0  0  0  0  0  0  0  0  0
   -1.2131    0.3263   -0.0033 c   0  0  0  0  0  0  0  0  0  0  0  0
   -2.5181    1.0649   -0.0080 c   0  0  0  0  0  0  0  0  0  0  0  0
   -1.1976   -1.0630   -0.0031 c   0  0  0  0  0  0  0  0  0  0  0  0
    0.0030   -1.7491    0.0010 c   0  0  0  0  0  0  0  0  0  0  0  0
    1.2002   -1.0568    0.0051 c   0  0  0  0  0  0  0  0  0  0  0  0
    2.3449    2.1524    0.0032 h   0  0  0  0  0  0  0  0  0  0  0  0
    3.1024    0.8116   -0.8649 h   0  0  0  0  0  0  0  0  0  0  0  0
    3.0905    0.8206    0.8948 h   0  0  0  0  0  0  0  0  0  0  0  0
   -0.0068    2.0892    0.0006 h   0  0  0  0  0  0  0  0  0  0  0  0
   -2.3589    2.1403   -0.0029 h   0  0  0  0  0  0  0  0  0  0  0  0
   -3.1088    0.7966    0.8672 h   0  0  0  0  0  0  0  0  0  0  0  0
   -3.0982    0.8037   -0.8925 h   0  0  0  0  0  0  0  0  0  0  0  0
   -2.1318   -1.6065   -0.0062 h   0  0  0  0  0  0  0  0  0  0  0  0
    0.0058   -2.8297    0.0013 h   0  0  0  0  0  0  0  0  0  0  0  0
    2.1371   -1.5955    0.0084 h   0  0  0  0  0  0  0  0  0  0  0  0
  1  2  1  0  0  0  0
  2  3  4  0  0  0  0
  3  4  4  0  0  0  0
  4  5  1  0  0  0  0
  4  6  4  0  0  0  0
  6  7  4  0  0  0  0
  2  8  4  0  0  0  0
  7  8  4  0  0  0  0
  1  9  1  0  0  0  0
  1 10  1  0  0  0  0
  1 11  1  0  0  0  0
  3 12  1  0  0  0  0
  5 13  1  0  0  0  0
  5 14  1  0  0  0  0
  5 15  1  0  0  0  0
  6 16  1  0  0  0  0
  7 17  1  0  0  0  0
  8 18  1  0  0  0  0
M  END
