24

C          2.51600       -1.46290        0.01090
C          1.22220       -0.69020        0.00860
C          0.00400       -1.38740        0.00690
C         -1.22450       -0.70650        0.00660
C         -2.50070       -1.50770        0.00260
C         -1.23190        0.70910        0.00970
C         -2.50070        1.52480        0.01300
C         -0.01280        1.40330        0.00970
C          1.21350        0.72170        0.00850
C          2.49740        1.51080        0.00670
H          2.34130       -2.55980        0.01170
H          3.10430       -1.20960        0.91770
H          3.10800       -1.21080       -0.89350
H          0.01280       -2.47110        0.00580
H         -2.30320       -2.60080       -0.00090
H         -3.09290       -1.26700       -0.90520
H         -3.09600       -1.27280        0.90980
H         -3.42110        0.90990        0.01330
H         -2.52620        2.17280       -0.88840
H         -2.52330        2.16790        0.91800
H         -0.02330        2.48740        0.01090
H          2.30820        2.60540        0.00570
H          3.08920        1.26510       -0.89970
H          3.09210        1.26650        0.91140
