
 OpenBabel02012213473D

 24 24  0  0  0  0  0  0  0  0999 V2000
    2.5160   -1.4613    0.0408 C   0  0  0  0  0  0  0  0  0  0  0  0
    1.2269   -0.6881    0.0090 C   0  0  0  0  0  0  0  0  0  0  0  0
    0.0033   -1.3800    0.0007 C   0  0  0  0  0  0  0  0  0  0  0  0
   -1.2288   -0.7016   -0.0049 C   0  0  0  0  0  0  0  0  0  0  0  0
   -2.5030   -1.4989   -0.0284 C   0  0  0  0  0  0  0  0  0  0  0  0
   -1.2345    0.7034    0.0097 C   0  0  0  0  0  0  0  0  0  0  0  0
   -2.4951    1.5231    0.0471 C   0  0  0  0  0  0  0  0  0  0  0  0
   -0.0099    1.3931   -0.0014 C   0  0  0  0  0  0  0  0  0  0  0  0
    1.2190    0.7164   -0.0068 C   0  0  0  0  0  0  0  0  0  0  0  0
    2.4963    1.5107   -0.0237 C   0  0  0  0  0  0  0  0  0  0  0  0
    2.3401   -2.5421    0.0523 H   0  0  0  0  0  0  0  0  0  0  0  0
    3.0833   -1.2117    0.9436 H   0  0  0  0  0  0  0  0  0  0  0  0
    3.1206   -1.2341   -0.8432 H   0  0  0  0  0  0  0  0  0  0  0  0
    0.0104   -2.4689    0.0015 H   0  0  0  0  0  0  0  0  0  0  0  0
   -2.3071   -2.5767   -0.0455 H   0  0  0  0  0  0  0  0  0  0  0  0
   -3.0831   -1.2578   -0.9251 H   0  0  0  0  0  0  0  0  0  0  0  0
   -3.1010   -1.2883    0.8646 H   0  0  0  0  0  0  0  0  0  0  0  0
   -3.4028    0.9154    0.0569 H   0  0  0  0  0  0  0  0  0  0  0  0
   -2.5443    2.1742   -0.8321 H   0  0  0  0  0  0  0  0  0  0  0  0
   -2.5071    2.1419    0.9505 H   0  0  0  0  0  0  0  0  0  0  0  0
   -0.0194    2.4815   -0.0025 H   0  0  0  0  0  0  0  0  0  0  0  0
    2.3002    2.5878   -0.0476 H   0  0  0  0  0  0  0  0  0  0  0  0
    3.0850    1.2650   -0.9129 H   0  0  0  0  0  0  0  0  0  0  0  0
    3.0862    1.3030    0.8743 H   0  0  0  0  0  0  0  0  0  0  0  0
  1  2  1  0  0  0  0
  1 11  1  0  0  0  0
  1 12  1  0  0  0  0
  1 13  1  0  0  0  0
  2  3  1  0  0  0  0
  2  9  2  0  0  0  0
  3  4  2  0  0  0  0
  3 14  1  0  0  0  0
  4  5  1  0  0  0  0
  4  6  1  0  0  0  0
  5 15  1  0  0  0  0
  5 16  1  0  0  0  0
  5 17  1  0  0  0  0
  6  7  1  0  0  0  0
  6  8  2  0  0  0  0
  7 18  1  0  0  0  0
  7 19  1  0  0  0  0
  7 20  1  0  0  0  0
  8  9  1  0  0  0  0
  8 21  1  0  0  0  0
  9 10  1  0  0  0  0
 10 22  1  0  0  0  0
 10 23  1  0  0  0  0
 10 24  1  0  0  0  0
M  END
