
 OpenBabel02012214153D

 21 21  0  0  0  0  0  0  0  0999 V2000
    1.2087    0.1799    0.8135 C   0  0  0  0  0  0  0  0  0  0  0  0
    2.6372    0.2033    0.8127 O   0  0  0  0  0  0  0  0  0  0  0  0
    3.2086   -1.0341    0.7364 C   0  0  0  0  0  0  0  0  0  0  0  0
    2.5712   -2.0789    0.6622 O   0  0  0  0  0  0  0  0  0  0  0  0
    4.6586   -0.9785    0.7669 C   0  0  0  0  0  0  0  0  0  0  0  0
    5.5232    0.1523    0.8789 C   0  0  0  0  0  0  0  0  0  0  0  0
    6.8127   -0.3325    0.8973 C   0  0  0  0  0  0  0  0  0  0  0  0
    8.1423    0.2953    1.0257 C   0  0  0  0  0  0  0  0  0  0  0  0
    6.8022   -1.6869    0.7788 O   0  0  0  0  0  0  0  0  0  0  0  0
    5.5002   -2.0762    0.6977 C   0  0  0  0  0  0  0  0  0  0  0  0
    5.2636   -3.5303    0.5670 C   0  0  0  0  0  0  0  0  0  0  0  0
    0.8507    1.2120    0.7662 H   0  0  0  0  0  0  0  0  0  0  0  0
    0.8403   -0.2734    1.7391 H   0  0  0  0  0  0  0  0  0  0  0  0
    0.8248   -0.3567   -0.0600 H   0  0  0  0  0  0  0  0  0  0  0  0
    5.2329    1.1916    0.9538 H   0  0  0  0  0  0  0  0  0  0  0  0
    8.0602    1.3836    1.1022 H   0  0  0  0  0  0  0  0  0  0  0  0
    8.7652    0.0585    0.1577 H   0  0  0  0  0  0  0  0  0  0  0  0
    8.6494   -0.0720    1.9236 H   0  0  0  0  0  0  0  0  0  0  0  0
    6.2064   -4.0842    0.5194 H   0  0  0  0  0  0  0  0  0  0  0  0
    4.6998   -3.7455   -0.3459 H   0  0  0  0  0  0  0  0  0  0  0  0
    4.6947   -3.9031    1.4241 H   0  0  0  0  0  0  0  0  0  0  0  0
  1  2  1  0  0  0  0
  1 12  1  0  0  0  0
  1 13  1  0  0  0  0
  1 14  1  0  0  0  0
  2  3  1  0  0  0  0
  3  4  2  0  0  0  0
  3  5  1  0  0  0  0
  5  6  1  0  0  0  0
  5 10  2  0  0  0  0
  6  7  2  0  0  0  0
  6 15  1  0  0  0  0
  7  8  1  0  0  0  0
  7  9  1  0  0  0  0
  8 16  1  0  0  0  0
  8 17  1  0  0  0  0
  8 18  1  0  0  0  0
  9 10  1  0  0  0  0
 10 11  1  0  0  0  0
 11 19  1  0  0  0  0
 11 20  1  0  0  0  0
 11 21  1  0  0  0  0
M  END
