
  xtb     02032211353D
 xtb: 6.4.1 (23d549d)
 47 47  0     0  0            999 V2000
   -0.0559   -2.8873   -2.6083 C   0  0  0  0  0  0  0  0  0  0  0  0
    0.1576   -2.6991   -1.3080 C   0  0  0  0  0  0  0  0  0  0  0  0
    0.8076   -1.5535   -0.7309 C   0  0  0  0  0  0  0  0  0  0  0  0
    1.3856   -0.4653   -1.3337 C   0  0  0  0  0  0  0  0  0  0  0  0
    1.9038    0.4965   -0.4453 C   0  0  0  0  0  0  0  0  0  0  0  0
    2.4878    1.7875   -0.9334 C   0  0  0  0  0  0  0  0  0  0  0  0
    1.6823    3.0251   -0.5025 C   0  0  0  0  0  0  0  0  0  0  0  0
    0.4909    3.3542   -1.4052 C   0  0  0  0  0  0  0  0  0  0  0  0
   -0.5786    2.2676   -1.5161 C   0  0  0  0  0  0  0  0  0  0  0  0
   -1.2382    1.8982   -0.1903 C   0  0  0  0  0  0  0  0  0  0  0  0
   -2.2407    0.7601   -0.3702 C   0  0  0  0  0  0  0  0  0  0  0  0
   -2.8267    0.2988    0.9619 C   0  0  0  0  0  0  0  0  0  0  0  0
   -3.9020   -0.7777    0.8035 C   0  0  0  0  0  0  0  0  0  0  0  0
   -3.3745   -2.1468    0.3699 C   0  0  0  0  0  0  0  0  0  0  0  0
   -2.5955   -2.8587    1.4695 C   0  0  0  0  0  0  0  0  0  0  0  0
    1.7522    0.1209    0.8758 C   0  0  0  0  0  0  0  0  0  0  0  0
    2.1483    0.7084    2.1300 C   0  0  0  0  0  0  0  0  0  0  0  0
    2.9689    1.7350    2.3422 C   0  0  0  0  0  0  0  0  0  0  0  0
    0.9211   -1.4073    0.9914 S   0  0  0  0  0  0  0  0  0  0  0  0
   -0.5551   -3.7685   -2.9704 H   0  0  0  0  0  0  0  0  0  0  0  0
    0.2571   -2.1741   -3.3512 H   0  0  0  0  0  0  0  0  0  0  0  0
   -0.1810   -3.4389   -0.5947 H   0  0  0  0  0  0  0  0  0  0  0  0
    1.4453   -0.3584   -2.4032 H   0  0  0  0  0  0  0  0  0  0  0  0
    2.5431    1.7591   -2.0236 H   0  0  0  0  0  0  0  0  0  0  0  0
    3.5109    1.8779   -0.5595 H   0  0  0  0  0  0  0  0  0  0  0  0
    2.3495    3.8911   -0.5179 H   0  0  0  0  0  0  0  0  0  0  0  0
    1.3392    2.8977    0.5238 H   0  0  0  0  0  0  0  0  0  0  0  0
    0.8630    3.5716   -2.4104 H   0  0  0  0  0  0  0  0  0  0  0  0
    0.0263    4.2681   -1.0248 H   0  0  0  0  0  0  0  0  0  0  0  0
   -0.1408    1.3702   -1.9524 H   0  0  0  0  0  0  0  0  0  0  0  0
   -1.3510    2.6192   -2.2059 H   0  0  0  0  0  0  0  0  0  0  0  0
   -1.7430    2.7734    0.2262 H   0  0  0  0  0  0  0  0  0  0  0  0
   -0.4782    1.5829    0.5256 H   0  0  0  0  0  0  0  0  0  0  0  0
   -1.7364   -0.0760   -0.8587 H   0  0  0  0  0  0  0  0  0  0  0  0
   -3.0495    1.0882   -1.0282 H   0  0  0  0  0  0  0  0  0  0  0  0
   -3.2721    1.1616    1.4642 H   0  0  0  0  0  0  0  0  0  0  0  0
   -2.0232   -0.0712    1.6007 H   0  0  0  0  0  0  0  0  0  0  0  0
   -4.6324   -0.4313    0.0677 H   0  0  0  0  0  0  0  0  0  0  0  0
   -4.4265   -0.8956    1.7552 H   0  0  0  0  0  0  0  0  0  0  0  0
   -2.7425   -2.0386   -0.5132 H   0  0  0  0  0  0  0  0  0  0  0  0
   -4.2273   -2.7691    0.0867 H   0  0  0  0  0  0  0  0  0  0  0  0
   -1.6944   -2.3101    1.7302 H   0  0  0  0  0  0  0  0  0  0  0  0
   -2.3031   -3.8542    1.1419 H   0  0  0  0  0  0  0  0  0  0  0  0
   -3.2069   -2.9606    2.3638 H   0  0  0  0  0  0  0  0  0  0  0  0
    1.7266    0.2011    2.9906 H   0  0  0  0  0  0  0  0  0  0  0  0
    3.4505    2.2817    1.5536 H   0  0  0  0  0  0  0  0  0  0  0  0
    3.1924    2.0540    3.3457 H   0  0  0  0  0  0  0  0  0  0  0  0
  1  2  2  0  0  0  0
  2  3  1  0  0  0  0
  3  4  4  0  0  0  0
  4  5  4  0  0  0  0
  5  6  1  0  0  0  0
  6  7  1  0  0  0  0
  7  8  1  0  0  0  0
  8  9  1  0  0  0  0
  9 10  1  0  0  0  0
 10 11  1  0  0  0  0
 11 12  1  0  0  0  0
 12 13  1  0  0  0  0
 13 14  1  0  0  0  0
 14 15  1  0  0  0  0
  5 16  4  0  0  0  0
 16 17  1  0  0  0  0
 17 18  2  0  0  0  0
  3 19  1  0  0  0  0
 16 19  1  0  0  0  0
  1 20  1  0  0  0  0
  1 21  1  0  0  0  0
  2 22  1  0  0  0  0
  4 23  1  0  0  0  0
  6 24  1  0  0  0  0
  6 25  1  0  0  0  0
  7 26  1  0  0  0  0
  7 27  1  0  0  0  0
  8 28  1  0  0  0  0
  8 29  1  0  0  0  0
  9 30  1  0  0  0  0
  9 31  1  0  0  0  0
 10 32  1  0  0  0  0
 10 33  1  0  0  0  0
 11 34  1  0  0  0  0
 11 35  1  0  0  0  0
 12 36  1  0  0  0  0
 12 37  1  0  0  0  0
 13 38  1  0  0  0  0
 13 39  1  0  0  0  0
 14 40  1  0  0  0  0
 14 41  1  0  0  0  0
 15 42  1  0  0  0  0
 15 43  1  0  0  0  0
 15 44  1  0  0  0  0
 17 45  1  0  0  0  0
 18 46  1  0  0  0  0
 18 47  1  0  0  0  0
M  END
