
 OpenBabel02032210583D

 18 18  0  0  0  0  0  0  0  0999 V2000
    2.6708    1.1672    0.7008 C   0  0  0  0  0  0  0  0  0  0  0  0
    2.3276    0.0667    0.0177 C   0  0  0  0  0  0  0  0  0  0  0  0
    3.0258   -1.2205    0.1300 C   0  0  0  0  0  0  0  0  0  0  0  0
    2.6096   -2.3291   -0.5906 C   0  0  0  0  0  0  0  0  0  0  0  0
    3.2980   -3.5322   -0.4351 C   0  0  0  0  0  0  0  0  0  0  0  0
    4.3763   -3.5806    0.4350 C   0  0  0  0  0  0  0  0  0  0  0  0
    5.1246   -4.8261    0.6495 C   0  0  0  0  0  0  0  0  0  0  0  0
    6.1714   -4.9421    1.4783 C   0  0  0  0  0  0  0  0  0  0  0  0
    4.7626   -2.4828    1.1172 N   0  0  0  0  0  0  0  0  0  0  0  0
    4.0841   -1.2973    0.9641 N   0  0  0  0  0  0  0  0  0  0  0  0
    2.1170    2.0923    0.5827 H   0  0  0  0  0  0  0  0  0  0  0  0
    3.5082    1.1756    1.3944 H   0  0  0  0  0  0  0  0  0  0  0  0
    1.4822    0.1065   -0.6617 H   0  0  0  0  0  0  0  0  0  0  0  0
    1.7605   -2.2744   -1.2636 H   0  0  0  0  0  0  0  0  0  0  0  0
    2.9829   -4.4116   -0.9874 H   0  0  0  0  0  0  0  0  0  0  0  0
    4.7894   -5.6976    0.0951 H   0  0  0  0  0  0  0  0  0  0  0  0
    6.5441   -4.0997    2.0556 H   0  0  0  0  0  0  0  0  0  0  0  0
    6.6834   -5.8908    1.6007 H   0  0  0  0  0  0  0  0  0  0  0  0
  1  2  2  0  0  0  0
  1 11  1  0  0  0  0
  1 12  1  0  0  0  0
  2  3  1  0  0  0  0
  2 13  1  0  0  0  0
  3  4  1  0  0  0  0
  3 10  2  0  0  0  0
  4  5  2  0  0  0  0
  4 14  1  0  0  0  0
  5  6  1  0  0  0  0
  5 15  1  0  0  0  0
  6  7  1  0  0  0  0
  6  9  2  0  0  0  0
  7  8  2  0  0  0  0
  7 16  1  0  0  0  0
  8 17  1  0  0  0  0
  8 18  1  0  0  0  0
  9 10  1  0  0  0  0
M  END
