14

C          2.71020        0.11140       -0.00620
C          1.23920       -0.13750       -0.00310
C          0.61650       -1.38040        0.00610
N         -0.74190       -1.33100        0.00710
C         -1.19910       -0.05880       -0.00120
C         -2.64600        0.29900       -0.00220
S          0.05870        1.05990       -0.01010
H          3.26960       -0.84780       -0.00010
H          2.98830        0.69710        0.89440
H          2.98650        0.68450       -0.91550
H          1.15640       -2.31810        0.01210
H         -3.27040       -0.61910        0.00460
H         -2.88140        0.89040       -0.91130
H         -2.87960        0.90270        0.89920
