
 OpenBabel02012214073D

 14 14  0  0  0  0  0  0  0  0999 V2000
    2.6894    0.1342   -0.0059 C   0  0  0  0  0  0  0  0  0  0  0  0
    1.2376   -0.1753   -0.0007 C   0  0  0  0  0  0  0  0  0  0  0  0
    0.6043   -1.4008    0.0053 C   0  0  0  0  0  0  0  0  0  0  0  0
   -0.7753   -1.3640    0.0063 N   0  0  0  0  0  0  0  0  0  0  0  0
   -1.1840   -0.1136    0.0015 C   0  0  0  0  0  0  0  0  0  0  0  0
   -2.6124    0.3014   -0.0022 C   0  0  0  0  0  0  0  0  0  0  0  0
    0.0622    1.0721   -0.0031 S   0  0  0  0  0  0  0  0  0  0  0  0
    3.2833   -0.7861    0.0024 H   0  0  0  0  0  0  0  0  0  0  0  0
    2.9678    0.7190    0.8767 H   0  0  0  0  0  0  0  0  0  0  0  0
    2.9641    0.7003   -0.9018 H   0  0  0  0  0  0  0  0  0  0  0  0
    1.1040   -2.3621    0.0083 H   0  0  0  0  0  0  0  0  0  0  0  0
   -3.2640   -0.5786    0.0044 H   0  0  0  0  0  0  0  0  0  0  0  0
   -2.8470    0.8861   -0.8972 H   0  0  0  0  0  0  0  0  0  0  0  0
   -2.8476    0.9001    0.8833 H   0  0  0  0  0  0  0  0  0  0  0  0
  1  2  1  0  0  0  0
  1  8  1  0  0  0  0
  1  9  1  0  0  0  0
  1 10  1  0  0  0  0
  2  3  2  0  0  0  0
  2  7  1  0  0  0  0
  3  4  1  0  0  0  0
  3 11  1  0  0  0  0
  4  5  2  0  0  0  0
  5  6  1  0  0  0  0
  5  7  1  0  0  0  0
  6 12  1  0  0  0  0
  6 13  1  0  0  0  0
  6 14  1  0  0  0  0
M  END
