
 OpenBabel02012214073D

 14 14  0  0  0  0  0  0  0  0999 V2000
    2.7102    0.1114   -0.0062 C   0  0  0  0  0  0  0  0  0  0  0  0
    1.2392   -0.1375   -0.0031 C   0  0  0  0  0  0  0  0  0  0  0  0
    0.6165   -1.3804    0.0061 C   0  0  0  0  0  0  0  0  0  0  0  0
   -0.7419   -1.3310    0.0071 N   0  0  0  0  0  0  0  0  0  0  0  0
   -1.1991   -0.0588   -0.0012 C   0  0  0  0  0  0  0  0  0  0  0  0
   -2.6460    0.2990   -0.0022 C   0  0  0  0  0  0  0  0  0  0  0  0
    0.0587    1.0599   -0.0101 S   0  0  0  0  0  0  0  0  0  0  0  0
    3.2696   -0.8478   -0.0001 H   0  0  0  0  0  0  0  0  0  0  0  0
    2.9883    0.6971    0.8944 H   0  0  0  0  0  0  0  0  0  0  0  0
    2.9865    0.6845   -0.9155 H   0  0  0  0  0  0  0  0  0  0  0  0
    1.1564   -2.3181    0.0121 H   0  0  0  0  0  0  0  0  0  0  0  0
   -3.2704   -0.6191    0.0046 H   0  0  0  0  0  0  0  0  0  0  0  0
   -2.8814    0.8904   -0.9113 H   0  0  0  0  0  0  0  0  0  0  0  0
   -2.8796    0.9027    0.8992 H   0  0  0  0  0  0  0  0  0  0  0  0
  1  2  1  0  0  0  0
  1  8  1  0  0  0  0
  1  9  1  0  0  0  0
  1 10  1  0  0  0  0
  2  3  2  0  0  0  0
  2  7  1  0  0  0  0
  3  4  1  0  0  0  0
  3 11  1  0  0  0  0
  4  5  2  0  0  0  0
  5  6  1  0  0  0  0
  5  7  1  0  0  0  0
  6 12  1  0  0  0  0
  6 13  1  0  0  0  0
  6 14  1  0  0  0  0
M  END
