
 OpenBabel02032210513D

 19 19  0  0  0  0  0  0  0  0999 V2000
    2.7831   -1.0748   -0.6957 C   0  0  0  0  0  0  0  0  0  0  0  0
    2.4369    0.0848   -0.1195 C   0  0  0  0  0  0  0  0  0  0  0  0
    3.1212    1.3632   -0.3610 C   0  0  0  0  0  0  0  0  0  0  0  0
    2.6812    2.5256    0.2619 C   0  0  0  0  0  0  0  0  0  0  0  0
    3.3361    3.7305   -0.0080 C   0  0  0  0  0  0  0  0  0  0  0  0
    4.4070    3.7576   -0.9019 C   0  0  0  0  0  0  0  0  0  0  0  0
    5.1642    4.9686   -1.2381 C   0  0  0  0  0  0  0  0  0  0  0  0
    4.6833    6.2140   -1.2828 C   0  0  0  0  0  0  0  0  0  0  0  0
    3.3906    6.4850   -1.0063 F   0  0  0  0  0  0  0  0  0  0  0  0
    5.5085    7.2218   -1.6383 F   0  0  0  0  0  0  0  0  0  0  0  0
    4.7878    2.5369   -1.4528 C   0  0  0  0  0  0  0  0  0  0  0  0
    4.1739    1.3549   -1.2094 N   0  0  0  0  0  0  0  0  0  0  0  0
    2.2376   -1.9878   -0.4861 H   0  0  0  0  0  0  0  0  0  0  0  0
    3.6153   -1.1379   -1.3918 H   0  0  0  0  0  0  0  0  0  0  0  0
    1.5964    0.1036    0.5671 H   0  0  0  0  0  0  0  0  0  0  0  0
    1.8412    2.5104    0.9488 H   0  0  0  0  0  0  0  0  0  0  0  0
    2.9940    4.6345    0.4897 H   0  0  0  0  0  0  0  0  0  0  0  0
    6.2077    4.8241   -1.5031 H   0  0  0  0  0  0  0  0  0  0  0  0
    5.6248    2.4642   -2.1432 H   0  0  0  0  0  0  0  0  0  0  0  0
  1  2  2  0  0  0  0
  1 13  1  0  0  0  0
  1 14  1  0  0  0  0
  2  3  1  0  0  0  0
  2 15  1  0  0  0  0
  3  4  1  0  0  0  0
  3 12  2  0  0  0  0
  4  5  2  0  0  0  0
  4 16  1  0  0  0  0
  5  6  1  0  0  0  0
  5 17  1  0  0  0  0
  6  7  1  0  0  0  0
  6 11  2  0  0  0  0
  7  8  2  0  0  0  0
  7 18  1  0  0  0  0
  8  9  1  0  0  0  0
  8 10  1  0  0  0  0
 11 12  1  0  0  0  0
 11 19  1  0  0  0  0
M  END
