
  xtb     02032211203D
 xtb: 6.4.1 (23d549d)
 25 25  0     0  0            999 V2000
    1.1483   -0.5063    0.4695 c   0  0  0  0  0  0  0  0  0  0  0  0
    2.2121    0.1908    0.0869 c   0  0  0  0  0  0  0  0  0  0  0  0
    3.0238    1.0692    0.9183 c   0  0  0  0  0  0  0  0  0  0  0  0
    2.8029    1.2600    2.2736 c   0  0  0  0  0  0  0  0  0  0  0  0
    3.5870    2.1142    3.0425 c   0  0  0  0  0  0  0  0  0  0  0  0
    3.3316    2.2530    4.4929 c   0  0  0  0  0  0  0  0  0  0  0  0
    3.7258    3.1747    5.1749 o   0  0  0  0  0  0  0  0  0  0  0  0
    2.6305    1.2740    5.0873 o   0  0  0  0  0  0  0  0  0  0  0  0
    4.6277    2.8636    2.4277 c   0  0  0  0  0  0  0  0  0  0  0  0
    5.3326    3.7275    3.1763 n   0  0  0  0  0  0  0  0  0  0  0  0
    4.9120    2.6585    1.0431 c   0  0  0  0  0  0  0  0  0  0  0  0
    6.0156    3.3811    0.4163 c   0  0  0  0  0  0  0  0  0  0  0  0
    6.4502    3.3237   -0.8393 c   0  0  0  0  0  0  0  0  0  0  0  0
    4.0992    1.7689    0.3521 c   0  0  0  0  0  0  0  0  0  0  0  0
    4.3226    1.5534   -0.9596 f   0  0  0  0  0  0  0  0  0  0  0  0
    0.6165   -1.1287   -0.2285 h   0  0  0  0  0  0  0  0  0  0  0  0
    0.7557   -0.4908    1.4720 h   0  0  0  0  0  0  0  0  0  0  0  0
    2.5335    0.1216   -0.9434 h   0  0  0  0  0  0  0  0  0  0  0  0
    1.9604    0.7481    2.7155 h   0  0  0  0  0  0  0  0  0  0  0  0
    2.4272    0.5444    4.4882 h   0  0  0  0  0  0  0  0  0  0  0  0
    5.0273    3.8728    4.1310 h   0  0  0  0  0  0  0  0  0  0  0  0
    6.0662    4.2898    2.7907 h   0  0  0  0  0  0  0  0  0  0  0  0
    6.5544    4.0496    1.0744 h   0  0  0  0  0  0  0  0  0  0  0  0
    6.0218    2.7057   -1.6045 h   0  0  0  0  0  0  0  0  0  0  0  0
    7.2904    3.9262   -1.1428 h   0  0  0  0  0  0  0  0  0  0  0  0
  1  2  2  0  0  0  0
  2  3  1  0  0  0  0
  3  4  4  0  0  0  0
  4  5  4  0  0  0  0
  5  6  1  0  0  0  0
  6  7  2  0  0  0  0
  6  8  1  0  0  0  0
  5  9  4  0  0  0  0
  9 10  4  0  0  0  0
  9 11  4  0  0  0  0
 11 12  1  0  0  0  0
 12 13  2  0  0  0  0
  3 14  4  0  0  0  0
 11 14  4  0  0  0  0
 14 15  1  0  0  0  0
  1 16  1  0  0  0  0
  1 17  1  0  0  0  0
  2 18  1  0  0  0  0
  4 19  1  0  0  0  0
  8 20  1  0  0  0  0
 10 21  1  0  0  0  0
 10 22  1  0  0  0  0
 12 23  1  0  0  0  0
 13 24  1  0  0  0  0
 13 25  1  0  0  0  0
M  END
