38

C          2.58454        0.14593       -0.19258
C          1.08513        0.11465       -0.15794
C          0.33885        0.16645       -1.34279
C         -1.05648        0.13276       -1.29739
C         -1.73770        0.04200       -0.06800
N         -3.18630        0.01950       -0.03650
C         -4.02750       -0.59120        0.86380
C         -3.66040       -1.26630        2.14530
C         -4.52250       -1.30938        3.26085
C         -4.14283       -1.97207        4.43163
C         -2.90403       -2.60876        4.50699
C         -2.04739       -2.59524        3.40619
C         -2.42431       -1.93770        2.23132
N         -5.33350       -0.46530        0.51170
C         -4.02170        0.55270       -0.96140
C         -5.30950        0.25370       -0.61790
C         -6.40120        0.65480       -1.38320
C         -6.14610        1.38610       -2.55510
C         -4.82020        1.68440       -2.93320
C         -3.73770        1.26240       -2.13850
C         -0.97971        0.00043        1.11692
C          0.41751        0.03269        1.07102
H          2.96683        0.21000       -1.23374
H          2.98740       -0.77815        0.27255
H          2.95287        1.02830        0.37182
H          0.83418        0.23536       -2.30346
H         -1.60817        0.18896       -2.22655
H         -5.50263       -0.86051        3.23622
H         -4.81499       -1.99762        5.27978
H         -2.61287       -3.12119        5.41467
H         -1.08960       -3.09641        3.46161
H         -1.73958       -1.94327        1.39241
H         -7.41300        0.40750       -1.08880
H         -6.97020        1.71320       -3.17550
H         -4.63380        2.23720       -3.84490
H         -2.73260        1.48520       -2.45910
H         -1.46128       -0.08399        2.08063
H          0.98069       -0.01049        1.99531
38

C          2.58668        0.06196       -0.15422
C          1.08703        0.04660       -0.11933
C          0.39993       -0.62563        0.90022
C         -0.99635       -0.62934        0.92366
C         -1.73770        0.04200       -0.06800
N         -3.18630        0.01950       -0.03650
C         -4.02750       -0.59120        0.86380
C         -3.66040       -1.26630        2.14530
C         -2.54318       -0.88514        2.91735
C         -2.25239       -1.53328        4.12125
C         -3.07321       -2.56399        4.57904
C         -4.19480       -2.93989        3.83978
C         -4.49258       -2.29175        2.63729
N         -5.33350       -0.46530        0.51170
C         -4.02170        0.55270       -0.96140
C         -5.30950        0.25370       -0.61790
C         -6.40120        0.65480       -1.38320
C         -6.14610        1.38610       -2.55510
C         -4.82020        1.68440       -2.93320
C         -3.73770        1.26240       -2.13850
C         -1.03873        0.70591       -1.09318
C          0.35943        0.71068       -1.11552
H          3.01993       -0.50332        0.69842
H          2.94996        1.10971       -0.10096
H          2.94307       -0.39962       -1.09906
H          0.94226       -1.14997        1.67734
H         -1.50139       -1.16860        1.71422
H         -1.90062       -0.07190        2.61983
H         -1.39197       -1.22969        4.70376
H         -2.84569       -3.06384        5.51158
H         -4.83657       -3.73401        4.19908
H         -5.36953       -2.60414        2.08410
H         -7.41300        0.40750       -1.08880
H         -6.97020        1.71320       -3.17550
H         -4.63380        2.23720       -3.84490
H         -2.73260        1.48520       -2.45910
H         -1.56775        1.24571       -1.86552
H          0.87642        1.23671       -1.90884
38

C          2.58611        0.06427       -0.17859
C          1.08658        0.04675       -0.14007
C          0.39588       -1.03570        0.42093
C         -1.00021       -1.03835        0.45417
C         -1.73770        0.04200       -0.06800
N         -3.18630        0.01950       -0.03650
C         -4.02750       -0.59120        0.86380
C         -3.66040       -1.26630        2.14530
C         -2.33061       -1.36038        2.60609
C         -2.03887       -1.98334        3.82299
C         -3.06606       -2.51411        4.60327
C         -4.38930       -2.41108        4.17408
C         -4.68681       -1.78495        2.95991
N         -5.33350       -0.46530        0.51170
C         -4.02170        0.55270       -0.96140
C         -5.30950        0.25370       -0.61790
C         -6.40120        0.65480       -1.38320
C         -6.14610        1.38610       -2.55510
C         -4.82020        1.68440       -2.93320
C         -3.73770        1.26240       -2.13850
C         -1.03526        1.11989       -0.63813
C          0.36272        1.12289       -0.66990
H          3.01622       -0.85245        0.27844
H          2.96301        0.94539        0.38193
H          2.93200        0.12724       -1.23177
H          0.93521       -1.88045        0.83141
H         -1.50827       -1.89357        0.87997
H         -1.50861       -0.93487        2.05292
H         -1.01366       -2.04766        4.16448
H         -2.83718       -2.99568        5.54505
H         -5.18727       -2.81544        4.78345
H         -5.72276       -1.71918        2.65149
H         -7.41300        0.40750       -1.08880
H         -6.97020        1.71320       -3.17550
H         -4.63380        2.23720       -3.84490
H         -2.73260        1.48520       -2.45910
H         -1.56107        1.97561       -1.03695
H          0.88255        1.96789       -1.10478
38

C          2.58611        0.06427       -0.17859
C          1.08658        0.04675       -0.14007
C          0.39588       -1.03570        0.42093
C         -1.00021       -1.03835        0.45417
C         -1.73770        0.04200       -0.06800
N         -3.18630        0.01950       -0.03650
C         -4.02750       -0.59120        0.86380
C         -3.66040       -1.26630        2.14530
C         -2.54318       -0.88514        2.91735
C         -2.25239       -1.53328        4.12125
C         -3.07321       -2.56399        4.57904
C         -4.19480       -2.93989        3.83978
C         -4.49258       -2.29175        2.63729
N         -5.33350       -0.46530        0.51170
C         -4.02170        0.55270       -0.96140
C         -5.30950        0.25370       -0.61790
C         -6.40120        0.65480       -1.38320
C         -6.14610        1.38610       -2.55510
C         -4.82020        1.68440       -2.93320
C         -3.73770        1.26240       -2.13850
C         -1.03526        1.11989       -0.63813
C          0.36272        1.12289       -0.66990
H          3.01622       -0.85245        0.27844
H          2.96301        0.94539        0.38193
H          2.93200        0.12724       -1.23177
H          0.93521       -1.88045        0.83141
H         -1.50827       -1.89357        0.87997
H         -1.90062       -0.07190        2.61983
H         -1.39197       -1.22969        4.70376
H         -2.84569       -3.06384        5.51158
H         -4.83657       -3.73401        4.19908
H         -5.36953       -2.60414        2.08410
H         -7.41300        0.40750       -1.08880
H         -6.97020        1.71320       -3.17550
H         -4.63380        2.23720       -3.84490
H         -2.73260        1.48520       -2.45910
H         -1.56107        1.97561       -1.03695
H          0.88255        1.96789       -1.10478
