
 OpenBabel02012213393D

 38 41  0  0  0  0  0  0  0  0999 V2000
    2.5350    0.0023   -0.0463 C   0  0  0  0  0  0  0  0  0  0  0  0
    1.0351   -0.0114   -0.0713 C   0  0  0  0  0  0  0  0  0  0  0  0
    0.3179   -1.1341    0.3530 C   0  0  0  0  0  0  0  0  0  0  0  0
   -1.0798   -1.1378    0.3197 C   0  0  0  0  0  0  0  0  0  0  0  0
   -1.7792    0.0008   -0.0976 C   0  0  0  0  0  0  0  0  0  0  0  0
   -3.2064    0.0408   -0.0512 N   0  0  0  0  0  0  0  0  0  0  0  0
   -4.0590   -0.5018    0.9278 C   0  0  0  0  0  0  0  0  0  0  0  0
   -3.6682   -1.1657    2.1862 C   0  0  0  0  0  0  0  0  0  0  0  0
   -2.5731   -0.7560    2.9593 C   0  0  0  0  0  0  0  0  0  0  0  0
   -2.1615   -1.4974    4.0716 C   0  0  0  0  0  0  0  0  0  0  0  0
   -2.8878   -2.6151    4.4724 C   0  0  0  0  0  0  0  0  0  0  0  0
   -4.0360   -2.9799    3.7743 C   0  0  0  0  0  0  0  0  0  0  0  0
   -4.4224   -2.2601    2.6399 C   0  0  0  0  0  0  0  0  0  0  0  0
   -5.3277   -0.3242    0.5857 N   0  0  0  0  0  0  0  0  0  0  0  0
   -4.0244    0.6230   -1.0205 C   0  0  0  0  0  0  0  0  0  0  0  0
   -5.3249    0.3676   -0.5895 C   0  0  0  0  0  0  0  0  0  0  0  0
   -6.4138    0.7999   -1.3604 C   0  0  0  0  0  0  0  0  0  0  0  0
   -6.1776    1.4748   -2.5612 C   0  0  0  0  0  0  0  0  0  0  0  0
   -4.8764    1.6986   -2.9996 C   0  0  0  0  0  0  0  0  0  0  0  0
   -3.7778    1.2626   -2.2497 C   0  0  0  0  0  0  0  0  0  0  0  0
   -1.0617    1.1219   -0.5339 C   0  0  0  0  0  0  0  0  0  0  0  0
    0.3356    1.1088   -0.5307 C   0  0  0  0  0  0  0  0  0  0  0  0
    2.9373   -0.9082    0.4077 H   0  0  0  0  0  0  0  0  0  0  0  0
    2.8937    0.8544    0.5417 H   0  0  0  0  0  0  0  0  0  0  0  0
    2.9261    0.0775   -1.0652 H   0  0  0  0  0  0  0  0  0  0  0  0
    0.8395   -2.0162    0.7184 H   0  0  0  0  0  0  0  0  0  0  0  0
   -1.5965   -2.0442    0.6288 H   0  0  0  0  0  0  0  0  0  0  0  0
   -1.9970    0.1252    2.6878 H   0  0  0  0  0  0  0  0  0  0  0  0
   -1.2684   -1.2030    4.6170 H   0  0  0  0  0  0  0  0  0  0  0  0
   -2.5659   -3.1939    5.3342 H   0  0  0  0  0  0  0  0  0  0  0  0
   -4.6272   -3.8304    4.1041 H   0  0  0  0  0  0  0  0  0  0  0  0
   -5.3167   -2.5644    2.0972 H   0  0  0  0  0  0  0  0  0  0  0  0
   -7.4264    0.5984   -1.0249 H   0  0  0  0  0  0  0  0  0  0  0  0
   -7.0177    1.8111   -3.1648 H   0  0  0  0  0  0  0  0  0  0  0  0
   -4.7073    2.2072   -3.9470 H   0  0  0  0  0  0  0  0  0  0  0  0
   -2.7743    1.4073   -2.6362 H   0  0  0  0  0  0  0  0  0  0  0  0
   -1.5628    2.0396   -0.8284 H   0  0  0  0  0  0  0  0  0  0  0  0
    0.8752    1.9896   -0.8716 H   0  0  0  0  0  0  0  0  0  0  0  0
  1  2  1  0  0  0  0
  1 23  1  0  0  0  0
  1 24  1  0  0  0  0
  1 25  1  0  0  0  0
  2  3  1  0  0  0  0
  2 22  2  0  0  0  0
  3  4  2  0  0  0  0
  3 26  1  0  0  0  0
  4  5  1  0  0  0  0
  4 27  1  0  0  0  0
  5  6  1  0  0  0  0
  5 21  2  0  0  0  0
  6  7  1  0  0  0  0
  6 15  1  0  0  0  0
  7  8  1  0  0  0  0
  7 14  2  0  0  0  0
  8  9  1  0  0  0  0
  8 13  2  0  0  0  0
  9 10  2  0  0  0  0
  9 28  1  0  0  0  0
 10 11  1  0  0  0  0
 10 29  1  0  0  0  0
 11 12  2  0  0  0  0
 11 30  1  0  0  0  0
 12 13  1  0  0  0  0
 12 31  1  0  0  0  0
 13 32  1  0  0  0  0
 14 16  1  0  0  0  0
 15 16  1  0  0  0  0
 15 20  2  0  0  0  0
 16 17  2  0  0  0  0
 17 18  1  0  0  0  0
 17 33  1  0  0  0  0
 18 19  2  0  0  0  0
 18 34  1  0  0  0  0
 19 20  1  0  0  0  0
 19 35  1  0  0  0  0
 20 36  1  0  0  0  0
 21 22  1  0  0  0  0
 21 37  1  0  0  0  0
 22 38  1  0  0  0  0
M  END
