
 OpenBabel02012213453D

 18 18  0  0  0  0  0  0  0  0999 V2000
    1.0027   -0.0272    0.0566 C   0  0  0  0  0  0  0  0  0  0  0  0
    2.4375    0.1294    0.0589 N   0  0  0  0  0  0  0  0  0  0  0  0
    3.1919    1.2788    0.0582 C   0  0  0  0  0  0  0  0  0  0  0  0
    2.6526    2.6633    0.0488 C   0  0  0  0  0  0  0  0  0  0  0  0
    4.5141    0.8597    0.0689 C   0  0  0  0  0  0  0  0  0  0  0  0
    5.7444    1.6852    0.0759 C   0  0  0  0  0  0  0  0  0  0  0  0
    4.4386   -0.5482    0.0722 C   0  0  0  0  0  0  0  0  0  0  0  0
    3.1837   -0.9932    0.0657 N   0  0  0  0  0  0  0  0  0  0  0  0
    0.5019    0.9397    0.0562 H   0  0  0  0  0  0  0  0  0  0  0  0
    0.7182   -0.5838    0.9536 H   0  0  0  0  0  0  0  0  0  0  0  0
    0.7211   -0.5840   -0.8411 H   0  0  0  0  0  0  0  0  0  0  0  0
    1.5634    2.7142    0.0409 H   0  0  0  0  0  0  0  0  0  0  0  0
    3.0130    3.1968   -0.8373 H   0  0  0  0  0  0  0  0  0  0  0  0
    3.0010    3.2047    0.9349 H   0  0  0  0  0  0  0  0  0  0  0  0
    5.5128    2.7551    0.0777 H   0  0  0  0  0  0  0  0  0  0  0  0
    6.3516    1.4743   -0.8100 H   0  0  0  0  0  0  0  0  0  0  0  0
    6.3438    1.4701    0.9662 H   0  0  0  0  0  0  0  0  0  0  0  0
    5.2485   -1.2666    0.0798 H   0  0  0  0  0  0  0  0  0  0  0  0
  1  2  1  0  0  0  0
  1  9  1  0  0  0  0
  1 10  1  0  0  0  0
  1 11  1  0  0  0  0
  2  3  1  0  0  0  0
  2  8  1  0  0  0  0
  3  4  1  0  0  0  0
  3  5  2  0  0  0  0
  4 12  1  0  0  0  0
  4 13  1  0  0  0  0
  4 14  1  0  0  0  0
  5  6  1  0  0  0  0
  5  7  1  0  0  0  0
  6 15  1  0  0  0  0
  6 16  1  0  0  0  0
  6 17  1  0  0  0  0
  7  8  2  0  0  0  0
  7 18  1  0  0  0  0
M  END
