34

C          3.29270        2.76576       -1.79538
C          2.02306        1.96100       -1.45067
C          0.80001        2.87894       -1.60279
O          1.85105        0.89527       -2.32777
C          2.45560       -0.32410       -2.31180
N          1.70210       -1.47190       -2.17950
C          2.03220       -2.67970       -2.70730
C          1.08200       -3.63320       -2.37660
C          0.53100       -1.65900       -1.51730
C          0.13990       -2.97250       -1.62360
C         -1.02350       -3.45620       -1.03140
C         -1.82320       -2.55290       -0.30230
C         -3.08610       -3.01350        0.36280
C         -1.43200       -1.19770       -0.19410
C         -0.24900       -0.73850       -0.80020
O          3.67380       -0.40890       -2.38862
C          2.08407        1.45427        0.00451
H          3.24443        3.13335       -2.84257
H          4.21006        2.15398       -1.68211
H          3.39031        3.64281       -1.11877
H          0.72515        3.25483       -2.64605
H          0.86931        3.75091       -0.91680
H         -0.13288        2.32094       -1.37035
H          2.91980       -2.87200       -3.29700
H          1.08420       -4.67970       -2.65280
H         -1.29870       -4.49920       -1.13190
H         -3.26020       -4.09800        0.19800
H         -3.95100       -2.45080       -0.04680
H         -3.01810       -2.83100        1.45610
H         -2.04470       -0.49950        0.36270
H          0.01660        0.30060       -0.69530
H          2.16174        2.30673        0.71301
H          2.96246        0.79752        0.16901
H          1.16755        0.87467        0.24783
34

C          3.48288        2.45831       -1.45911
C          2.02306        1.96100       -1.45067
C          1.11054        3.09990       -1.93216
O          1.85105        0.89527       -2.32777
C          2.45560       -0.32410       -2.31180
N          1.70210       -1.47190       -2.17950
C          2.03220       -2.67970       -2.70730
C          1.08200       -3.63320       -2.37660
C          0.53100       -1.65900       -1.51730
C          0.13990       -2.97250       -1.62360
C         -1.02350       -3.45620       -1.03140
C         -1.82320       -2.55290       -0.30230
C         -3.08610       -3.01350        0.36280
C         -1.43200       -1.19770       -0.19410
C         -0.24900       -0.73850       -0.80020
O          3.67380       -0.40890       -2.38862
C          1.59930        1.55620       -0.02427
H          3.78436        2.75337       -2.48677
H          4.18433        1.67888       -1.09978
H          3.59454        3.34130       -0.79248
H          1.38779        3.40886       -2.96316
H          1.19204        3.98448       -1.26389
H          0.05051        2.76553       -1.94651
H          2.91980       -2.87200       -3.29700
H          1.08420       -4.67970       -2.65280
H         -1.29870       -4.49920       -1.13190
H         -3.26020       -4.09800        0.19800
H         -3.95100       -2.45080       -0.04680
H         -3.01810       -2.83100        1.45610
H         -2.04470       -0.49950        0.36270
H          0.01660        0.30060       -0.69530
H          1.67868        2.42159        0.66818
H          2.24116        0.74459        0.37478
H          0.54719        1.19813       -0.02352
34

C          0.53434        2.11273       -1.37091
C          2.06795        1.95895       -1.42426
C          2.67956        2.68644       -0.21665
O          2.44156        0.62221       -1.33358
C          2.45560       -0.32410       -2.31180
N          1.70210       -1.47190       -2.17950
C          2.03220       -2.67970       -2.70730
C          1.08200       -3.63320       -2.37660
C          0.53100       -1.65900       -1.51730
C          0.13990       -2.97250       -1.62360
C         -1.02350       -3.45620       -1.03140
C         -1.82320       -2.55290       -0.30230
C         -3.08610       -3.01350        0.36280
C         -1.43200       -1.19770       -0.19410
C         -0.24900       -0.73850       -0.80020
O          3.15683       -0.17496       -3.30333
C          2.62842        2.58661       -2.71652
H          0.13349        1.66376       -0.43721
H          0.04206        1.62123       -2.23390
H          0.25244        3.18817       -1.39343
H          2.29902        2.24993        0.73200
H          2.42672        3.76878       -0.23442
H          3.78631        2.58291       -0.22343
H          2.91980       -2.87200       -3.29700
H          1.08420       -4.67970       -2.65280
H         -1.29870       -4.49920       -1.13190
H         -3.26020       -4.09800        0.19800
H         -3.95100       -2.45080       -0.04680
H         -3.01810       -2.83100        1.45610
H         -2.04470       -0.49950        0.36270
H          0.01660        0.30060       -0.69530
H          2.38294        3.66927       -2.76434
H          2.20299        2.10381       -3.61977
H          3.73342        2.47278       -2.75056
34

C          0.59515        2.09651       -1.86062
C          2.06795        1.95895       -1.42426
C          2.22782        2.57320       -0.02470
O          2.44156        0.62221       -1.33358
C          2.45560       -0.32410       -2.31180
N          1.70210       -1.47190       -2.17950
C          2.03220       -2.67970       -2.70730
C          1.08200       -3.63320       -2.37660
C          0.53100       -1.65900       -1.51730
C          0.13990       -2.97250       -1.62360
C         -1.02350       -3.45620       -1.03140
C         -1.82320       -2.55290       -0.30230
C         -3.08610       -3.01350        0.36280
C         -1.43200       -1.19770       -0.19410
C         -0.24900       -0.73850       -0.80020
O          3.15683       -0.17496       -3.30333
C          2.99303        2.70977       -2.40330
H         -0.06953        1.55857       -1.15150
H          0.42767        1.68543       -2.87630
H          0.29590        3.16731       -1.88000
H          1.57702        2.04639        0.70620
H          1.95424        3.65063       -0.02954
H          3.28013        2.47835        0.32072
H          2.91980       -2.87200       -3.29700
H          1.08420       -4.67970       -2.65280
H         -1.29870       -4.49920       -1.13190
H         -3.26020       -4.09800        0.19800
H         -3.95100       -2.45080       -0.04680
H         -3.01810       -2.83100        1.45610
H         -2.04470       -0.49950        0.36270
H          0.01660        0.30060       -0.69530
H          2.73614        3.79040       -2.43400
H          2.90146        2.31161       -3.43433
H          4.05291        2.60721       -2.08501
34

C          3.78057        2.49119       -1.39895
C          2.69176        1.60091       -0.76620
C          1.63280        2.50381       -0.11428
O          2.04491        0.83670       -1.73173
C          2.45560       -0.32410       -2.31180
N          1.70210       -1.47190       -2.17950
C          2.03220       -2.67970       -2.70730
C          1.08200       -3.63320       -2.37660
C          0.53100       -1.65900       -1.51730
C          0.13990       -2.97250       -1.62360
C         -1.02350       -3.45620       -1.03140
C         -1.82320       -2.55290       -0.30230
C         -3.08610       -3.01350        0.36280
C         -1.43200       -1.19770       -0.19410
C         -0.24900       -0.73850       -0.80020
O          3.50915       -0.36353       -2.93276
C          3.30232        0.69073        0.31862
H          3.33760        3.14891       -2.17691
H          4.58330        1.88755       -1.86789
H          4.25430        3.13266       -0.62394
H          1.16853        3.16789       -0.87502
H          2.08445        3.13724        0.67976
H          0.82782        1.88762        0.34177
H          2.91980       -2.87200       -3.29700
H          1.08420       -4.67970       -2.65280
H         -1.29870       -4.49920       -1.13190
H         -3.26020       -4.09800        0.19800
H         -3.95100       -2.45080       -0.04680
H         -3.01810       -2.83100        1.45610
H         -2.04470       -0.49950        0.36270
H          0.01660        0.30060       -0.69530
H          3.76874        1.29904        1.12305
H          4.08644        0.02847       -0.10151
H          2.51416        0.05096        0.77102
34

C          4.05820        2.10165       -1.27664
C          2.69176        1.60091       -0.76620
C          1.79851        2.81648       -0.47276
O          2.04491        0.83670       -1.73173
C          2.45560       -0.32410       -2.31180
N          1.70210       -1.47190       -2.17950
C          2.03220       -2.67970       -2.70730
C          1.08200       -3.63320       -2.37660
C          0.53100       -1.65900       -1.51730
C          0.13990       -2.97250       -1.62360
C         -1.02350       -3.45620       -1.03140
C         -1.82320       -2.55290       -0.30230
C         -3.08610       -3.01350        0.36280
C         -1.43200       -1.19770       -0.19410
C         -0.24900       -0.73850       -0.80020
O          3.50915       -0.36353       -2.93276
C          2.86586        0.78900        0.53324
H          3.92973        2.68981       -2.21024
H          4.75130        1.26222       -1.48549
H          4.54105        2.75197       -0.51473
H          1.64843        3.41852       -1.39488
H          2.25510        3.46735        0.30416
H          0.80071        2.48444       -0.11245
H          2.91980       -2.87200       -3.29700
H          1.08420       -4.67970       -2.65280
H         -1.29870       -4.49920       -1.13190
H         -3.26020       -4.09800        0.19800
H         -3.95100       -2.45080       -0.04680
H         -3.01810       -2.83100        1.45610
H         -2.04470       -0.49950        0.36270
H          0.01660        0.30060       -0.69530
H          3.32854        1.41441        1.32665
H          3.51842       -0.09378        0.37580
H          1.87883        0.43000        0.89664
34

C          0.60642        1.91726       -3.35151
C          1.75968        2.05610       -2.33703
C          1.32661        3.02627       -1.22670
O          2.04491        0.83670       -1.73173
C          2.45560       -0.32410       -2.31180
N          1.70210       -1.47190       -2.17950
C          2.03220       -2.67970       -2.70730
C          1.08200       -3.63320       -2.37660
C          0.53100       -1.65900       -1.51730
C          0.13990       -2.97250       -1.62360
C         -1.02350       -3.45620       -1.03140
C         -1.82320       -2.55290       -0.30230
C         -3.08610       -3.01350        0.36280
C         -1.43200       -1.19770       -0.19410
C         -0.24900       -0.73850       -0.80020
O          3.50915       -0.36353       -2.93276
C          3.01855        2.62131       -3.02538
H         -0.30045        1.51410       -2.85242
H          0.87439        1.24099       -4.18788
H          0.35568        2.90791       -3.79004
H          0.42338        2.64094       -0.70615
H          1.09318        4.02980       -1.64402
H          2.13658        3.13751       -0.47354
H          2.91980       -2.87200       -3.29700
H          1.08420       -4.67970       -2.65280
H         -1.29870       -4.49920       -1.13190
H         -3.26020       -4.09800        0.19800
H         -3.95100       -2.45080       -0.04680
H         -3.01810       -2.83100        1.45610
H         -2.04470       -0.49950        0.36270
H          0.01660        0.30060       -0.69530
H          2.81113        3.62298       -3.45936
H          3.36204        1.96157       -3.84800
H          3.84665        2.71892       -2.29061
34

C          0.34646        2.05354       -2.95449
C          1.75968        2.05610       -2.33703
C          1.81855        3.13340       -1.24269
O          2.04491        0.83670       -1.73173
C          2.45560       -0.32410       -2.31180
N          1.70210       -1.47190       -2.17950
C          2.03220       -2.67970       -2.70730
C          1.08200       -3.63320       -2.37660
C          0.53100       -1.65900       -1.51730
C          0.13990       -2.97250       -1.62360
C         -1.02350       -3.45620       -1.03140
C         -1.82320       -2.55290       -0.30230
C         -3.08610       -3.01350        0.36280
C         -1.43200       -1.19770       -0.19410
C         -0.24900       -0.73850       -0.80020
O          3.50915       -0.36353       -2.93276
C          2.81701        2.38276       -3.41099
H         -0.41371        1.82232       -2.17814
H          0.25461        1.30501       -3.76685
H          0.11285        3.04967       -3.39002
H          1.07072        2.92020       -0.44860
H          1.60943        4.14051       -1.66425
H          2.82524        3.15065       -0.77157
H          2.91980       -2.87200       -3.29700
H          1.08420       -4.67970       -2.65280
H         -1.29870       -4.49920       -1.13190
H         -3.26020       -4.09800        0.19800
H         -3.95100       -2.45080       -0.04680
H         -3.01810       -2.83100        1.45610
H         -2.04470       -0.49950        0.36270
H          0.01660        0.30060       -0.69530
H          2.62716        3.38315       -3.85582
H          2.80282        1.63927       -4.23377
H          3.83340        2.38284       -2.96142
34

C          4.58942        1.73278       -1.45143
C          3.50153        1.09246       -0.56546
C          2.93909        2.16595        0.37947
O          2.44156        0.62221       -1.33358
C          2.45560       -0.32410       -2.31180
N          1.70210       -1.47190       -2.17950
C          2.03220       -2.67970       -2.70730
C          1.08200       -3.63320       -2.37660
C          0.53100       -1.65900       -1.51730
C          0.13990       -2.97250       -1.62360
C         -1.02350       -3.45620       -1.03140
C         -1.82320       -2.55290       -0.30230
C         -3.08610       -3.01350        0.36280
C         -1.43200       -1.19770       -0.19410
C         -0.24900       -0.73850       -0.80020
O          3.15683       -0.17496       -3.30333
C          4.09875       -0.04935        0.28168
H          4.15778        2.55773       -2.05739
H          5.04454        0.99412       -2.14128
H          5.40585        2.14889       -0.82147
H          2.49395        3.00074       -0.20385
H          3.73781        2.57807        1.03363
H          2.14327        1.73412        1.02435
H          2.91980       -2.87200       -3.29700
H          1.08420       -4.67970       -2.65280
H         -1.29870       -4.49920       -1.13190
H         -3.26020       -4.09800        0.19800
H         -3.95100       -2.45080       -0.04680
H         -3.01810       -2.83100        1.45610
H         -2.04470       -0.49950        0.36270
H          0.01660        0.30060       -0.69530
H          4.90695        0.33377        0.94102
H          4.53323       -0.84453       -0.35773
H          3.31107       -0.50779        0.91773
34

C          4.32944        2.13760       -1.34050
C          3.50153        1.09246       -0.56546
C          2.90026        1.76326        0.67958
O          2.44156        0.62221       -1.33358
C          2.45560       -0.32410       -2.31180
N          1.70210       -1.47190       -2.17950
C          2.03220       -2.67970       -2.70730
C          1.08200       -3.63320       -2.37660
C          0.53100       -1.65900       -1.51730
C          0.13990       -2.97250       -1.62360
C         -1.02350       -3.45620       -1.03140
C         -1.82320       -2.55290       -0.30230
C         -3.08610       -3.01350        0.36280
C         -1.43200       -1.19770       -0.19410
C         -0.24900       -0.73850       -0.80020
O          3.15683       -0.17496       -3.30333
C          4.39774       -0.07817       -0.11328
H          3.68262        2.98184       -1.66135
H          4.80408        1.69957       -2.24133
H          5.14194        2.54145       -0.69763
H          2.24175        2.60851        0.38430
H          3.69955        2.15378        1.34617
H          2.28789        1.03418        1.25327
H          2.91980       -2.87200       -3.29700
H          1.08420       -4.67970       -2.65280
H         -1.29870       -4.49920       -1.13190
H         -3.26020       -4.09800        0.19800
H         -3.95100       -2.45080       -0.04680
H         -3.01810       -2.83100        1.45610
H         -2.04470       -0.49950        0.36270
H          0.01660        0.30060       -0.69530
H          5.21197        0.28550        0.54965
H          4.86897       -0.58639       -0.97906
H          3.79666       -0.82865        0.44407
