22

C          1.08890       -0.19420        0.02800
N          2.54790       -0.15120        0.02920
C          3.31640        0.96410        0.02930
C          4.66280        0.61800        0.03120
C          3.39400       -1.20020        0.03090
C          4.69170       -0.76020        0.03240
C          5.77040       -1.64110        0.03490
C          5.49510       -3.02640        0.03590
C          6.61380       -4.02520        0.03950
C          4.15170       -3.47890        0.03390
C          3.08470       -2.56170        0.03130
H          0.66830        0.83410        0.02740
H          0.72950       -0.72600        0.93400
H          0.73080       -0.72690       -0.87780
H          2.92820        1.97470        0.02820
H          5.50980        1.29130        0.03200
H          6.78620       -1.26560        0.03640
H          7.60570       -3.52500        0.04110
H          6.54490       -4.66630       -0.86440
H          6.54090       -4.66370        0.94500
H          3.93630       -4.54030        0.03450
H          2.05920       -2.90700        0.03000
