
 OpenBabel02032210583D

 17 17  0  0  0  0  0  0  0  0999 V2000
    1.4064    0.8538   -0.1619 C   0  0  0  0  0  0  0  0  0  0  0  0
    2.4221   -0.0126   -0.0501 C   0  0  0  0  0  0  0  0  0  0  0  0
    3.0288   -0.6341   -1.1806 C   0  0  0  0  0  0  0  0  0  0  0  0
    2.7808   -0.4900   -2.5337 C   0  0  0  0  0  0  0  0  0  0  0  0
    3.6033   -1.3201   -3.3472 C   0  0  0  0  0  0  0  0  0  0  0  0
    4.4810   -2.1009   -2.6194 C   0  0  0  0  0  0  0  0  0  0  0  0
    5.4436   -3.0647   -3.0409 C   0  0  0  0  0  0  0  0  0  0  0  0
    5.6225   -3.3916   -4.3275 C   0  0  0  0  0  0  0  0  0  0  0  0
    4.2945   -1.7760   -0.9377 S   0  0  0  0  0  0  0  0  0  0  0  0
    0.9687    1.2987    0.7261 H   0  0  0  0  0  0  0  0  0  0  0  0
    0.9764    1.1464   -1.1133 H   0  0  0  0  0  0  0  0  0  0  0  0
    2.7926   -0.2567    0.9429 H   0  0  0  0  0  0  0  0  0  0  0  0
    2.0321    0.1789   -2.9381 H   0  0  0  0  0  0  0  0  0  0  0  0
    3.5367   -1.3395   -4.4276 H   0  0  0  0  0  0  0  0  0  0  0  0
    6.0526   -3.5596   -2.2875 H   0  0  0  0  0  0  0  0  0  0  0  0
    5.0548   -2.9482   -5.1382 H   0  0  0  0  0  0  0  0  0  0  0  0
    6.3624   -4.1364   -4.6023 H   0  0  0  0  0  0  0  0  0  0  0  0
  1  2  2  0  0  0  0
  1 10  1  0  0  0  0
  1 11  1  0  0  0  0
  2  3  1  0  0  0  0
  2 12  1  0  0  0  0
  3  4  2  0  0  0  0
  3  9  1  0  0  0  0
  4  5  1  0  0  0  0
  4 13  1  0  0  0  0
  5  6  2  0  0  0  0
  5 14  1  0  0  0  0
  6  7  1  0  0  0  0
  6  9  1  0  0  0  0
  7  8  2  0  0  0  0
  7 15  1  0  0  0  0
  8 16  1  0  0  0  0
  8 17  1  0  0  0  0
M  END
