
 OpenBabel02032210583D

 17 17  0  0  0  0  0  0  0  0999 V2000
    1.3960    0.9074   -0.1784 C   0  0  0  0  0  0  0  0  0  0  0  0
    2.3800    0.0174   -0.0101 C   0  0  0  0  0  0  0  0  0  0  0  0
    3.0419   -0.6830   -1.1294 C   0  0  0  0  0  0  0  0  0  0  0  0
    2.7817   -0.5505   -2.4929 C   0  0  0  0  0  0  0  0  0  0  0  0
    3.5913   -1.3664   -3.2933 C   0  0  0  0  0  0  0  0  0  0  0  0
    4.4890   -2.1415   -2.5600 C   0  0  0  0  0  0  0  0  0  0  0  0
    5.4808   -3.1072   -3.0751 C   0  0  0  0  0  0  0  0  0  0  0  0
    5.6429   -3.3718   -4.3759 C   0  0  0  0  0  0  0  0  0  0  0  0
    4.2737   -1.8090   -0.9260 S   0  0  0  0  0  0  0  0  0  0  0  0
    0.9508    1.3866    0.6877 H   0  0  0  0  0  0  0  0  0  0  0  0
    1.0204    1.1715   -1.1601 H   0  0  0  0  0  0  0  0  0  0  0  0
    2.7101   -0.2037    1.0005 H   0  0  0  0  0  0  0  0  0  0  0  0
    2.0343    0.1095   -2.9105 H   0  0  0  0  0  0  0  0  0  0  0  0
    3.5121   -1.3797   -4.3713 H   0  0  0  0  0  0  0  0  0  0  0  0
    6.1086   -3.6289   -2.3590 H   0  0  0  0  0  0  0  0  0  0  0  0
    5.0480   -2.8863   -5.1406 H   0  0  0  0  0  0  0  0  0  0  0  0
    6.3902   -4.0941   -4.6883 H   0  0  0  0  0  0  0  0  0  0  0  0
  1  2  2  0  0  0  0
  1 10  1  0  0  0  0
  1 11  1  0  0  0  0
  2  3  1  0  0  0  0
  2 12  1  0  0  0  0
  3  4  2  0  0  0  0
  3  9  1  0  0  0  0
  4  5  1  0  0  0  0
  4 13  1  0  0  0  0
  5  6  2  0  0  0  0
  5 14  1  0  0  0  0
  6  7  1  0  0  0  0
  6  9  1  0  0  0  0
  7  8  2  0  0  0  0
  7 15  1  0  0  0  0
  8 16  1  0  0  0  0
  8 17  1  0  0  0  0
M  END
