
 OpenBabel02012214003D

 21 22  0  0  0  0  0  0  0  0999 V2000
    0.7588   -0.0673   -0.0105 C   0  0  0  0  0  0  0  0  0  0  0  0
    2.2495    0.0507   -0.0099 C   0  0  0  0  0  0  0  0  0  0  0  0
    3.0820    1.5201   -0.0100 S   0  0  0  0  0  0  0  0  0  0  0  0
    4.6065    0.8228   -0.0089 C   0  0  0  0  0  0  0  0  0  0  0  0
    5.8356    1.4773   -0.0085 C   0  0  0  0  0  0  0  0  0  0  0  0
    7.0019    0.7012   -0.0074 C   0  0  0  0  0  0  0  0  0  0  0  0
    6.9192   -0.7026   -0.0070 C   0  0  0  0  0  0  0  0  0  0  0  0
    5.6693   -1.3446   -0.0075 C   0  0  0  0  0  0  0  0  0  0  0  0
    4.5008   -0.5647   -0.0085 C   0  0  0  0  0  0  0  0  0  0  0  0
    3.1614   -1.0143   -0.0090 C   0  0  0  0  0  0  0  0  0  0  0  0
    2.7198   -2.4522   -0.0087 C   0  0  0  0  0  0  0  0  0  0  0  0
    0.2925    0.9402   -0.0110 H   0  0  0  0  0  0  0  0  0  0  0  0
    0.4259   -0.6152    0.8954 H   0  0  0  0  0  0  0  0  0  0  0  0
    0.4266   -0.6158   -0.9162 H   0  0  0  0  0  0  0  0  0  0  0  0
    5.8903    2.5583   -0.0089 H   0  0  0  0  0  0  0  0  0  0  0  0
    7.9704    1.1843   -0.0072 H   0  0  0  0  0  0  0  0  0  0  0  0
    7.8263   -1.2933   -0.0063 H   0  0  0  0  0  0  0  0  0  0  0  0
    5.6369   -2.4239   -0.0071 H   0  0  0  0  0  0  0  0  0  0  0  0
    3.5692   -3.1604   -0.0080 H   0  0  0  0  0  0  0  0  0  0  0  0
    2.1074   -2.6516   -0.9128 H   0  0  0  0  0  0  0  0  0  0  0  0
    2.1063   -2.6509    0.8948 H   0  0  0  0  0  0  0  0  0  0  0  0
  1  2  1  0  0  0  0
  1 12  1  0  0  0  0
  1 13  1  0  0  0  0
  1 14  1  0  0  0  0
  2  3  1  0  0  0  0
  2 10  2  0  0  0  0
  3  4  1  0  0  0  0
  4  5  1  0  0  0  0
  4  9  2  0  0  0  0
  5  6  2  0  0  0  0
  5 15  1  0  0  0  0
  6  7  1  0  0  0  0
  6 16  1  0  0  0  0
  7  8  2  0  0  0  0
  7 17  1  0  0  0  0
  8  9  1  0  0  0  0
  8 18  1  0  0  0  0
  9 10  1  0  0  0  0
 10 11  1  0  0  0  0
 11 19  1  0  0  0  0
 11 20  1  0  0  0  0
 11 21  1  0  0  0  0
M  END
