
  xtb     02012214003D
 xtb: 6.4.1 (23d549d)
 21 22  0     0  0            999 V2000
    0.7803   -0.0710   -0.0105 c   0  0  0  0  0  0  0  0  0  0  0  0
    2.2661    0.0131   -0.0098 c   0  0  0  0  0  0  0  0  0  0  0  0
    3.0495    1.5750   -0.0099 s   0  0  0  0  0  0  0  0  0  0  0  0
    4.6163    0.8197   -0.0089 c   0  0  0  0  0  0  0  0  0  0  0  0
    5.8423    1.4651   -0.0084 c   0  0  0  0  0  0  0  0  0  0  0  0
    6.9880    0.6966   -0.0076 c   0  0  0  0  0  0  0  0  0  0  0  0
    6.9072   -0.6949   -0.0071 c   0  0  0  0  0  0  0  0  0  0  0  0
    5.6877   -1.3346   -0.0075 c   0  0  0  0  0  0  0  0  0  0  0  0
    4.5101   -0.5848   -0.0084 c   0  0  0  0  0  0  0  0  0  0  0  0
    3.1442   -1.0221   -0.0090 c   0  0  0  0  0  0  0  0  0  0  0  0
    2.7048   -2.4510   -0.0087 c   0  0  0  0  0  0  0  0  0  0  0  0
    0.3410    0.9229   -0.0111 h   0  0  0  0  0  0  0  0  0  0  0  0
    0.4294   -0.6094    0.8707 h   0  0  0  0  0  0  0  0  0  0  0  0
    0.4303   -0.6100   -0.8917 h   0  0  0  0  0  0  0  0  0  0  0  0
    5.8901    2.5432   -0.0088 h   0  0  0  0  0  0  0  0  0  0  0  0
    7.9550    1.1765   -0.0072 h   0  0  0  0  0  0  0  0  0  0  0  0
    7.8167   -1.2775   -0.0064 h   0  0  0  0  0  0  0  0  0  0  0  0
    5.6413   -2.4136   -0.0071 h   0  0  0  0  0  0  0  0  0  0  0  0
    3.5601   -3.1194   -0.0079 h   0  0  0  0  0  0  0  0  0  0  0  0
    2.0987   -2.6630   -0.8896 h   0  0  0  0  0  0  0  0  0  0  0  0
    2.0977   -2.6624    0.8717 h   0  0  0  0  0  0  0  0  0  0  0  0
  1  2  1  0  0  0  0
  2  3  1  0  0  0  0
  3  4  1  0  0  0  0
  4  5  4  0  0  0  0
  5  6  4  0  0  0  0
  6  7  4  0  0  0  0
  7  8  4  0  0  0  0
  4  9  4  0  0  0  0
  8  9  4  0  0  0  0
  2 10  2  0  0  0  0
  9 10  1  0  0  0  0
 10 11  1  0  0  0  0
  1 12  1  0  0  0  0
  1 13  1  0  0  0  0
  1 14  1  0  0  0  0
  5 15  1  0  0  0  0
  6 16  1  0  0  0  0
  7 17  1  0  0  0  0
  8 18  1  0  0  0  0
 11 19  1  0  0  0  0
 11 20  1  0  0  0  0
 11 21  1  0  0  0  0
M  END
