29

C          2.54561       -0.15738        1.23283
C          2.05490       -0.15970       -0.01120
C          2.91600       -0.18770       -1.21690
C          2.65230        0.35780       -2.46000
N          3.70780        0.10700       -3.26920
C          3.88660        0.49490       -4.68440
C          3.84792        2.03013       -4.78971
C          5.25074       -0.02191       -5.17754
C          2.77867       -0.09360       -5.58627
N          4.62380       -0.57360       -2.59210
C          4.16660       -0.77020       -1.33950
C          4.91250       -1.49990       -0.29220
C          4.28975       -2.17573        0.67809
H          1.86644       -0.13879        2.07928
H          3.61129       -0.17552        1.43055
H          0.97735       -0.14341       -0.13193
H          1.76020        0.89660       -2.74540
H          4.64832        2.48754       -4.16957
H          2.86840        2.41426       -4.43154
H          3.99190        2.35776       -5.84209
H          6.07583        0.40475       -4.56714
H          5.42170        0.26459       -6.23780
H          5.29565       -1.12911       -5.09772
H          1.77779        0.27128       -5.27031
H          2.78657       -1.20404       -5.54042
H          2.93427        0.20706       -6.64510
H          5.99692       -1.49072       -0.29938
H          3.20629       -2.21625        0.73527
H          4.87019       -2.69766        1.43205
29

C          2.54561       -0.15738        1.23283
C          2.05490       -0.15970       -0.01120
C          2.91600       -0.18770       -1.21690
C          2.65230        0.35780       -2.46000
N          3.70780        0.10700       -3.26920
C          3.88660        0.49490       -4.68440
C          2.64080        1.26954       -5.15069
C          5.12939        1.39617       -4.80418
C          4.07776       -0.73617       -5.59826
N          4.62380       -0.57360       -2.59210
C          4.16660       -0.77020       -1.33950
C          4.91250       -1.49990       -0.29220
C          4.41803       -1.67255        0.93732
H          1.86644       -0.13879        2.07928
H          3.61129       -0.17552        1.43055
H          0.97735       -0.14341       -0.13193
H          1.76020        0.89660       -2.74540
H          2.48534        2.17654       -4.52810
H          1.73657        0.62913       -5.06384
H          2.74716        1.58792       -6.21036
H          5.01417        2.30827       -4.17952
H          5.28509        1.71611       -5.85721
H          6.03520        0.85189       -4.46130
H          3.19083       -1.40388       -5.55094
H          4.97761       -1.31287       -5.29342
H          4.21383       -0.42189       -6.65583
H          5.89192       -1.90844       -0.51565
H          3.44406       -1.28242        1.21657
H          4.99530       -2.21146        1.68170
29

C          2.06038       -1.13019        0.90887
C          2.05490       -0.15970       -0.01120
C          2.91600       -0.18770       -1.21690
C          2.65230        0.35780       -2.46000
N          3.70780        0.10700       -3.26920
C          3.88660        0.49490       -4.68440
C          4.57424        1.87091       -4.74158
C          4.77136       -0.55352       -5.38382
C          2.53706        0.58182       -5.43166
N          4.62380       -0.57360       -2.59210
C          4.16660       -0.77020       -1.33950
C          4.91250       -1.49990       -0.29220
C          4.41803       -1.67255        0.93732
H          1.40571       -1.05767        1.77157
H          2.70181       -1.99987        0.82337
H          1.38445        0.67916        0.13971
H          1.76020        0.89660       -2.74540
H          5.56100        1.83936       -4.23193
H          3.94563        2.63480       -4.23499
H          4.73551        2.18859       -5.79451
H          5.76381       -0.62276       -4.88819
H          4.93557       -0.28388       -6.44956
H          4.29070       -1.55424       -5.34122
H          1.87583        1.34274       -4.96424
H          2.01873       -0.40122       -5.41738
H          2.69484        0.87096       -6.49338
H          5.89192       -1.90844       -0.51565
H          3.44406       -1.28242        1.21657
H          4.99530       -2.21146        1.68170
29

C          2.11731        0.81302        0.90440
C          2.05490       -0.15970       -0.01120
C          2.91600       -0.18770       -1.21690
C          2.65230        0.35780       -2.46000
N          3.70780        0.10700       -3.26920
C          3.88660        0.49490       -4.68440
C          4.57424        1.87091       -4.74158
C          4.77136       -0.55352       -5.38382
C          2.53706        0.58182       -5.43166
N          4.62380       -0.57360       -2.59210
C          4.16660       -0.77020       -1.33950
C          4.91250       -1.49990       -0.29220
C          4.78976       -2.82041       -0.12720
H          1.46308        0.78033        1.76986
H          2.80783        1.64380        0.81447
H          1.34110       -0.96062        0.14684
H          1.76020        0.89660       -2.74540
H          5.56100        1.83936       -4.23193
H          3.94563        2.63480       -4.23499
H          4.73551        2.18859       -5.79451
H          5.76381       -0.62276       -4.88819
H          4.93557       -0.28388       -6.44956
H          4.29070       -1.55424       -5.34122
H          1.87583        1.34274       -4.96424
H          2.01873       -0.40122       -5.41738
H          2.69484        0.87096       -6.49338
H          5.57902       -0.95777        0.36958
H          4.13479       -3.41223       -0.75931
H          5.35114       -3.32232        0.65429
29

C          1.15709       -1.11205        0.26333
C          2.05490       -0.15970       -0.01120
C          2.91600       -0.18770       -1.21690
C          2.65230        0.35780       -2.46000
N          3.70780        0.10700       -3.26920
C          3.88660        0.49490       -4.68440
C          3.11810        1.80313       -4.94413
C          5.38589        0.71404       -4.95875
C          3.36024       -0.59111       -5.64915
N          4.62380       -0.57360       -2.59210
C          4.16660       -0.77020       -1.33950
C          4.91250       -1.49990       -0.29220
C          4.41803       -1.67255        0.93732
H          0.55134       -1.03805        1.16093
H          1.00807       -1.96638       -0.38707
H          2.14672        0.66715        0.68440
H          1.76020        0.89660       -2.74540
H          3.48735        2.61482       -4.28137
H          2.03454        1.65718       -4.74441
H          3.24136        2.13102       -5.99906
H          5.79287        1.51113       -4.29963
H          5.55363        1.01954       -6.01421
H          5.95415       -0.22087       -4.76558
H          2.27417       -0.76549       -5.49177
H          3.90346       -1.54816       -5.49363
H          3.50765       -0.28095       -6.70642
H          5.89192       -1.90844       -0.51565
H          3.44406       -1.28242        1.21657
H          4.99530       -2.21146        1.68170
29

C          0.71955       -0.12072       -0.07218
C          2.05490       -0.15970       -0.01120
C          2.91600       -0.18770       -1.21690
C          2.65230        0.35780       -2.46000
N          3.70780        0.10700       -3.26920
C          3.88660        0.49490       -4.68440
C          3.84792        2.03013       -4.78971
C          5.25074       -0.02191       -5.17754
C          2.77867       -0.09360       -5.58627
N          4.62380       -0.57360       -2.59210
C          4.16660       -0.77020       -1.33950
C          4.91250       -1.49990       -0.29220
C          6.24832       -1.51027       -0.25317
H          0.13928       -0.09911        0.84484
H          0.18727       -0.10782       -1.01644
H          2.51832       -0.16769        0.96918
H          1.76020        0.89660       -2.74540
H          4.64832        2.48754       -4.16957
H          2.86840        2.41426       -4.43154
H          3.99190        2.35776       -5.84209
H          6.07583        0.40475       -4.56714
H          5.42170        0.26459       -6.23780
H          5.29565       -1.12911       -5.09772
H          1.77779        0.27128       -5.27031
H          2.78657       -1.20404       -5.54042
H          2.93427        0.20706       -6.64510
H          4.37056       -2.04916        0.46984
H          6.84117       -0.98008       -0.99224
H          6.76230       -2.05935        0.52920
29

C          2.11731        0.81302        0.90440
C          2.05490       -0.15970       -0.01120
C          2.91600       -0.18770       -1.21690
C          2.65230        0.35780       -2.46000
N          3.70780        0.10700       -3.26920
C          3.88660        0.49490       -4.68440
C          2.64080        1.26954       -5.15069
C          5.12939        1.39617       -4.80418
C          4.07776       -0.73617       -5.59826
N          4.62380       -0.57360       -2.59210
C          4.16660       -0.77020       -1.33950
C          4.91250       -1.49990       -0.29220
C          4.78976       -2.82041       -0.12720
H          1.46308        0.78033        1.76986
H          2.80783        1.64380        0.81447
H          1.34110       -0.96062        0.14684
H          1.76020        0.89660       -2.74540
H          2.48534        2.17654       -4.52810
H          1.73657        0.62913       -5.06384
H          2.74716        1.58792       -6.21036
H          5.01417        2.30827       -4.17952
H          5.28509        1.71611       -5.85721
H          6.03520        0.85189       -4.46130
H          3.19083       -1.40388       -5.55094
H          4.97761       -1.31287       -5.29342
H          4.21383       -0.42189       -6.65583
H          5.57902       -0.95777        0.36958
H          4.13479       -3.41223       -0.75931
H          5.35114       -3.32232        0.65429
29

C          1.15709       -1.11205        0.26333
C          2.05490       -0.15970       -0.01120
C          2.91600       -0.18770       -1.21690
C          2.65230        0.35780       -2.46000
N          3.70780        0.10700       -3.26920
C          3.88660        0.49490       -4.68440
C          3.84792        2.03013       -4.78971
C          5.25074       -0.02191       -5.17754
C          2.77867       -0.09360       -5.58627
N          4.62380       -0.57360       -2.59210
C          4.16660       -0.77020       -1.33950
C          4.91250       -1.49990       -0.29220
C          5.75886       -0.87921        0.53512
H          0.55134       -1.03805        1.16093
H          1.00807       -1.96638       -0.38707
H          2.14672        0.66715        0.68440
H          1.76020        0.89660       -2.74540
H          4.64832        2.48754       -4.16957
H          2.86840        2.41426       -4.43154
H          3.99190        2.35776       -5.84209
H          6.07583        0.40475       -4.56714
H          5.42170        0.26459       -6.23780
H          5.29565       -1.12911       -5.09772
H          1.77779        0.27128       -5.27031
H          2.78657       -1.20404       -5.54042
H          2.93427        0.20706       -6.64510
H          4.77963       -2.57086       -0.18500
H          5.93227        0.19064        0.47079
H          6.29151       -1.44788        1.29054
29

C          0.71955       -0.12072       -0.07218
C          2.05490       -0.15970       -0.01120
C          2.91600       -0.18770       -1.21690
C          2.65230        0.35780       -2.46000
N          3.70780        0.10700       -3.26920
C          3.88660        0.49490       -4.68440
C          4.57424        1.87091       -4.74158
C          4.77136       -0.55352       -5.38382
C          2.53706        0.58182       -5.43166
N          4.62380       -0.57360       -2.59210
C          4.16660       -0.77020       -1.33950
C          4.91250       -1.49990       -0.29220
C          4.76913       -1.21549        1.00572
H          0.13928       -0.09911        0.84484
H          0.18727       -0.10782       -1.01644
H          2.51832       -0.16769        0.96918
H          1.76020        0.89660       -2.74540
H          5.56100        1.83936       -4.23193
H          3.94563        2.63480       -4.23499
H          4.73551        2.18859       -5.79451
H          5.76381       -0.62276       -4.88819
H          4.93557       -0.28388       -6.44956
H          4.29070       -1.55424       -5.34122
H          1.87583        1.34274       -4.96424
H          2.01873       -0.40122       -5.41738
H          2.69484        0.87096       -6.49338
H          5.60149       -2.28866       -0.57371
H          4.09544       -0.43403        1.34376
H          5.33536       -1.77044        1.74678
29

C          2.54561       -0.15738        1.23283
C          2.05490       -0.15970       -0.01120
C          2.91600       -0.18770       -1.21690
C          2.65230        0.35780       -2.46000
N          3.70780        0.10700       -3.26920
C          3.88660        0.49490       -4.68440
C          3.11810        1.80313       -4.94413
C          5.38589        0.71404       -4.95875
C          3.36024       -0.59111       -5.64915
N          4.62380       -0.57360       -2.59210
C          4.16660       -0.77020       -1.33950
C          4.91250       -1.49990       -0.29220
C          5.75860       -2.49123       -0.58786
H          1.86644       -0.13879        2.07928
H          3.61129       -0.17552        1.43055
H          0.97735       -0.14341       -0.13193
H          1.76020        0.89660       -2.74540
H          3.48735        2.61482       -4.28137
H          2.03454        1.65718       -4.74441
H          3.24136        2.13102       -5.99906
H          5.79287        1.51113       -4.29963
H          5.55363        1.01954       -6.01421
H          5.95415       -0.22087       -4.76558
H          2.27417       -0.76549       -5.49177
H          3.90346       -1.54816       -5.49363
H          3.50765       -0.28095       -6.70642
H          4.77451       -1.23401        0.75009
H          5.93284       -2.80074       -1.61385
H          6.28710       -3.00657        0.20768
