 xtb: 6.5.0 (unknown)
          08112218553D

 23  0  0     0  0            999 V2000
   -1.9802    3.9785    0.2147 C   0  0  0  0  0  0  0  0  0  0  0  0
   -2.4841    2.7549    0.1109 C   0  0  0  0  0  0  0  0  0  0  0  0
   -1.7385    1.5010    0.1057 C   0  0  0  0  0  0  0  0  0  0  0  0
   -2.4269    0.3114   -0.1437 C   0  0  0  0  0  0  0  0  0  0  0  0
   -1.7886   -0.9166   -0.1513 C   0  0  0  0  0  0  0  0  0  0  0  0
   -2.5194   -2.1996   -0.3936 C   0  0  0  0  0  0  0  0  0  0  0  0
   -0.4183   -0.9355    0.0852 C   0  0  0  0  0  0  0  0  0  0  0  0
    0.2011   -2.1332    0.1338 F   0  0  0  0  0  0  0  0  0  0  0  0
    0.3153    0.2248    0.3208 C   0  0  0  0  0  0  0  0  0  0  0  0
    1.7568    0.2107    0.5650 C   0  0  0  0  0  0  0  0  0  0  0  0
    2.6411   -0.5594   -0.0477 C   0  0  0  0  0  0  0  0  0  0  0  0
    2.4179   -1.4239   -1.0223 F   0  0  0  0  0  0  0  0  0  0  0  0
    3.9457   -0.5198    0.2139 F   0  0  0  0  0  0  0  0  0  0  0  0
   -0.3696    1.4357    0.3449 C   0  0  0  0  0  0  0  0  0  0  0  0
   -2.6171    4.8461    0.2054 H   0  0  0  0  0  0  0  0  0  0  0  0
   -0.9254    4.1716    0.3069 H   0  0  0  0  0  0  0  0  0  0  0  0
   -3.5557    2.6375    0.0080 H   0  0  0  0  0  0  0  0  0  0  0  0
   -3.4908    0.3466   -0.3289 H   0  0  0  0  0  0  0  0  0  0  0  0
   -3.5730   -2.0154   -0.5827 H   0  0  0  0  0  0  0  0  0  0  0  0
   -2.4226   -2.8556    0.4707 H   0  0  0  0  0  0  0  0  0  0  0  0
   -2.0892   -2.7207   -1.2477 H   0  0  0  0  0  0  0  0  0  0  0  0
    2.1434    0.9117    1.2891 H   0  0  0  0  0  0  0  0  0  0  0  0
    0.1892    2.3355    0.5464 H   0  0  0  0  0  0  0  0  0  0  0  0
M  END
