
  xtb     02032211353D
 xtb: 6.4.1 (23d549d)
 23 23  0     0  0            999 V2000
   -4.2177   -1.4100    0.1021 C   0  0  0  0  0  0  0  0  0  0  0  0
   -3.3903   -0.3726    0.1118 C   0  0  0  0  0  0  0  0  0  0  0  0
   -1.9361   -0.4256    0.0084 C   0  0  0  0  0  0  0  0  0  0  0  0
   -1.2079   -1.6014   -0.2015 C   0  0  0  0  0  0  0  0  0  0  0  0
    0.1703   -1.5299   -0.2077 C   0  0  0  0  0  0  0  0  0  0  0  0
    0.8040   -0.3019   -0.0394 C   0  0  0  0  0  0  0  0  0  0  0  0
    2.2947   -0.2902    0.0479 C   0  0  0  0  0  0  0  0  0  0  0  0
    2.7778    0.3127    1.1636 N   0  0  0  0  0  0  0  0  0  0  0  0
    3.0121   -0.8389   -0.7596 O   0  0  0  0  0  0  0  0  0  0  0  0
   -0.0066    0.8416    0.0584 C   0  0  0  0  0  0  0  0  0  0  0  0
    0.5100    2.2115    0.0655 C   0  0  0  0  0  0  0  0  0  0  0  0
    1.6050    2.6126   -0.5655 C   0  0  0  0  0  0  0  0  0  0  0  0
   -1.3285    0.7521    0.1157 N   0  0  0  0  0  0  0  0  0  0  0  0
   -5.2826   -1.2755    0.1848 H   0  0  0  0  0  0  0  0  0  0  0  0
   -3.8780   -2.4282    0.0141 H   0  0  0  0  0  0  0  0  0  0  0  0
   -3.7748    0.6334    0.2104 H   0  0  0  0  0  0  0  0  0  0  0  0
   -1.7074   -2.5458   -0.3418 H   0  0  0  0  0  0  0  0  0  0  0  0
    0.7747   -2.4167   -0.3316 H   0  0  0  0  0  0  0  0  0  0  0  0
    2.1837    0.8383    1.7791 H   0  0  0  0  0  0  0  0  0  0  0  0
    3.7756    0.3822    1.2784 H   0  0  0  0  0  0  0  0  0  0  0  0
   -0.1349    2.9227    0.5635 H   0  0  0  0  0  0  0  0  0  0  0  0
    2.2281    1.9331   -1.1232 H   0  0  0  0  0  0  0  0  0  0  0  0
    1.9088    3.6457   -0.5627 H   0  0  0  0  0  0  0  0  0  0  0  0
  1  2  2  0  0  0  0
  2  3  1  0  0  0  0
  3  4  4  0  0  0  0
  4  5  4  0  0  0  0
  5  6  4  0  0  0  0
  6  7  1  0  0  0  0
  7  8  4  0  0  0  0
  7  9  2  0  0  0  0
  6 10  4  0  0  0  0
 10 11  1  0  0  0  0
 11 12  2  0  0  0  0
  3 13  4  0  0  0  0
 10 13  4  0  0  0  0
  1 14  1  0  0  0  0
  1 15  1  0  0  0  0
  2 16  1  0  0  0  0
  4 17  1  0  0  0  0
  5 18  1  0  0  0  0
  8 19  1  0  0  0  0
  8 20  1  0  0  0  0
 11 21  1  0  0  0  0
 12 22  1  0  0  0  0
 12 23  1  0  0  0  0
M  END
