 xtb: 6.5.0 (unknown)
          08112218563D

 27  0  0     0  0            999 V2000
   -3.3319   -2.0109    0.8730 C   0  0  0  0  0  0  0  0  0  0  0  0
   -3.1407   -0.9161    0.1495 C   0  0  0  0  0  0  0  0  0  0  0  0
   -1.8944   -0.1507    0.0786 C   0  0  0  0  0  0  0  0  0  0  0  0
   -1.9861    1.2291   -0.0966 C   0  0  0  0  0  0  0  0  0  0  0  0
   -0.8464    2.0110   -0.1168 C   0  0  0  0  0  0  0  0  0  0  0  0
   -0.9915    3.7207   -0.3186 Cl  0  0  0  0  0  0  0  0  0  0  0  0
    0.4083    1.4487    0.0265 C   0  0  0  0  0  0  0  0  0  0  0  0
    0.5319    0.0677    0.1702 C   0  0  0  0  0  0  0  0  0  0  0  0
    1.8152   -0.6008    0.3172 C   0  0  0  0  0  0  0  0  0  0  0  0
    3.0294   -0.0888    0.1916 C   0  0  0  0  0  0  0  0  0  0  0  0
    3.3658    1.1599   -0.1064 F   0  0  0  0  0  0  0  0  0  0  0  0
    4.1390   -0.8072    0.3470 F   0  0  0  0  0  0  0  0  0  0  0  0
   -0.6247   -0.7338    0.1916 C   0  0  0  0  0  0  0  0  0  0  0  0
   -0.4740   -2.0960    0.3213 O   0  0  0  0  0  0  0  0  0  0  0  0
   -0.6169   -2.8204   -0.8958 C   0  0  0  0  0  0  0  0  0  0  0  0
   -0.5158   -4.3023   -0.5796 C   0  0  0  0  0  0  0  0  0  0  0  0
   -4.2890   -2.5040    0.8986 H   0  0  0  0  0  0  0  0  0  0  0  0
   -2.5457   -2.4438    1.4666 H   0  0  0  0  0  0  0  0  0  0  0  0
   -3.9647   -0.4862   -0.4070 H   0  0  0  0  0  0  0  0  0  0  0  0
   -2.9569    1.6898   -0.1961 H   0  0  0  0  0  0  0  0  0  0  0  0
    1.2786    2.0826    0.0211 H   0  0  0  0  0  0  0  0  0  0  0  0
    1.7676   -1.6527    0.5596 H   0  0  0  0  0  0  0  0  0  0  0  0
    0.1785   -2.5196   -1.5940 H   0  0  0  0  0  0  0  0  0  0  0  0
   -1.5861   -2.5905   -1.3576 H   0  0  0  0  0  0  0  0  0  0  0  0
    0.4349   -4.5179   -0.0994 H   0  0  0  0  0  0  0  0  0  0  0  0
   -0.5905   -4.8793   -1.4967 H   0  0  0  0  0  0  0  0  0  0  0  0
   -1.3178   -4.5947    0.0922 H   0  0  0  0  0  0  0  0  0  0  0  0
M  END
