21

C          1.17390       -0.24970       -0.04370
C          2.65160       -0.04400       -0.05450
S          3.44450        1.44910       -0.00990
C          5.01750        0.82910       -0.04360
C          6.27450        1.63240       -0.03270
C          4.92760       -0.55380       -0.09810
C          3.61880       -1.03750       -0.08830
O          3.39050       -2.37330       -0.11200
C          4.43910       -3.24690        0.16300
C          5.73180       -2.74260       -0.51890
O          5.96880       -1.41930       -0.15730
H          0.65060        0.72860       -0.00960
H          0.88690       -0.84490        0.84800
H          0.86700       -0.79210       -0.96210
H          6.03720        2.71600        0.00800
H          6.85780        1.42400       -0.95360
H          6.88150        1.36150        0.85610
H          4.17950       -4.27570       -0.16290
H          4.61230       -3.25770        1.26150
H          5.57870       -2.78660       -1.61960
H          6.60560       -3.37590       -0.25920
