
 OpenBabel02032211213D

 17 17  0  0  0  0  0  0  0  0999 V2000
    1.2728    0.7178    0.5661 C   0  0  0  0  0  0  0  0  0  0  0  0
    2.3711    0.2111   -0.0152 C   0  0  0  0  0  0  0  0  0  0  0  0
    3.2067    0.8778   -0.9653 C   0  0  0  0  0  0  0  0  0  0  0  0
    3.0037    2.1521   -1.4557 C   0  0  0  0  0  0  0  0  0  0  0  0
    3.9773    2.4949   -2.3348 O   0  0  0  0  0  0  0  0  0  0  0  0
    4.8177    1.4340   -2.4191 C   0  0  0  0  0  0  0  0  0  0  0  0
    4.3960    0.4031   -1.6037 C   0  0  0  0  0  0  0  0  0  0  0  0
    5.0480   -0.8615   -1.4611 C   0  0  0  0  0  0  0  0  0  0  0  0
    6.1639   -1.2516   -2.0946 C   0  0  0  0  0  0  0  0  0  0  0  0
    0.7059    0.1305    1.2804 H   0  0  0  0  0  0  0  0  0  0  0  0
    0.9083    1.7180    0.3571 H   0  0  0  0  0  0  0  0  0  0  0  0
    2.6500   -0.8015    0.2677 H   0  0  0  0  0  0  0  0  0  0  0  0
    2.2523    2.9107   -1.2885 H   0  0  0  0  0  0  0  0  0  0  0  0
    5.6532    1.5666   -3.0916 H   0  0  0  0  0  0  0  0  0  0  0  0
    4.5978   -1.5783   -0.7780 H   0  0  0  0  0  0  0  0  0  0  0  0
    6.6922   -0.6166   -2.7977 H   0  0  0  0  0  0  0  0  0  0  0  0
    6.5811   -2.2385   -1.9198 H   0  0  0  0  0  0  0  0  0  0  0  0
  1  2  2  0  0  0  0
  1 10  1  0  0  0  0
  1 11  1  0  0  0  0
  2  3  1  0  0  0  0
  2 12  1  0  0  0  0
  3  4  2  0  0  0  0
  3  7  1  0  0  0  0
  4  5  1  0  0  0  0
  4 13  1  0  0  0  0
  5  6  1  0  0  0  0
  6  7  2  0  0  0  0
  6 14  1  0  0  0  0
  7  8  1  0  0  0  0
  8  9  2  0  0  0  0
  8 15  1  0  0  0  0
  9 16  1  0  0  0  0
  9 17  1  0  0  0  0
M  END
