
  xtb     02032211343D
 xtb: 6.4.1 (23d549d)
 19 19  0     0  0            999 V2000
    0.4066    2.8421   -0.5204 C   0  0  0  0  0  0  0  0  0  0  0  0
    1.3565    2.1218    0.0611 C   0  0  0  0  0  0  0  0  0  0  0  0
    1.4226    0.6618    0.0982 C   0  0  0  0  0  0  0  0  0  0  0  0
    2.6563    0.1711    0.0212 N   0  0  0  0  0  0  0  0  0  0  0  0
    2.8396   -1.1314   -0.0325 C   0  0  0  0  0  0  0  0  0  0  0  0
    1.7938   -2.0439   -0.0080 C   0  0  0  0  0  0  0  0  0  0  0  0
    0.5086   -1.5550    0.1322 C   0  0  0  0  0  0  0  0  0  0  0  0
    0.2933   -0.1777    0.1983 C   0  0  0  0  0  0  0  0  0  0  0  0
   -1.0318    0.3747    0.4442 C   0  0  0  0  0  0  0  0  0  0  0  0
   -2.1828   -0.1629    0.0725 C   0  0  0  0  0  0  0  0  0  0  0  0
   -2.3609   -1.2700   -0.6406 F   0  0  0  0  0  0  0  0  0  0  0  0
   -3.3700    0.3744    0.3455 F   0  0  0  0  0  0  0  0  0  0  0  0
    0.4521    3.9178   -0.5364 H   0  0  0  0  0  0  0  0  0  0  0  0
   -0.4303    2.3941   -1.0298 H   0  0  0  0  0  0  0  0  0  0  0  0
    2.2232    2.6056    0.4907 H   0  0  0  0  0  0  0  0  0  0  0  0
    3.8701   -1.4555   -0.0952 H   0  0  0  0  0  0  0  0  0  0  0  0
    1.9811   -3.1042   -0.0686 H   0  0  0  0  0  0  0  0  0  0  0  0
   -0.3243   -2.2367    0.2125 H   0  0  0  0  0  0  0  0  0  0  0  0
   -1.0878    1.3083    0.9842 H   0  0  0  0  0  0  0  0  0  0  0  0
  1  2  2  0  0  0  0
  2  3  1  0  0  0  0
  3  4  4  0  0  0  0
  4  5  4  0  0  0  0
  5  6  4  0  0  0  0
  6  7  4  0  0  0  0
  3  8  4  0  0  0  0
  7  8  4  0  0  0  0
  8  9  1  0  0  0  0
  9 10  2  0  0  0  0
 10 11  1  0  0  0  0
 10 12  1  0  0  0  0
  1 13  1  0  0  0  0
  1 14  1  0  0  0  0
  2 15  1  0  0  0  0
  5 16  1  0  0  0  0
  6 17  1  0  0  0  0
  7 18  1  0  0  0  0
  9 19  1  0  0  0  0
M  END
