
  xtb     02032211353D
 xtb: 6.4.1 (23d549d)
 24 24  0     0  0            999 V2000
   -3.1833   -0.7120    0.0583 C   0  0  0  0  0  0  0  0  0  0  0  0
   -2.5345    0.3281    0.5625 C   0  0  0  0  0  0  0  0  0  0  0  0
   -1.1606    0.7327    0.2559 C   0  0  0  0  0  0  0  0  0  0  0  0
   -0.9197    2.0962    0.1114 C   0  0  0  0  0  0  0  0  0  0  0  0
    0.3297    2.5584   -0.2532 C   0  0  0  0  0  0  0  0  0  0  0  0
    1.3708    1.6650   -0.3975 C   0  0  0  0  0  0  0  0  0  0  0  0
    1.1701    0.3003   -0.1996 C   0  0  0  0  0  0  0  0  0  0  0  0
    2.3040   -0.4640   -0.3048 O   0  0  0  0  0  0  0  0  0  0  0  0
    2.5272   -1.5139    0.6098 C   0  0  0  0  0  0  0  0  0  0  0  0
   -0.1139   -0.1906    0.0802 C   0  0  0  0  0  0  0  0  0  0  0  0
   -0.3914   -1.6281    0.1823 C   0  0  0  0  0  0  0  0  0  0  0  0
   -0.0164   -2.5170   -0.7264 C   0  0  0  0  0  0  0  0  0  0  0  0
   -4.2082   -0.9140    0.3221 H   0  0  0  0  0  0  0  0  0  0  0  0
   -2.7306   -1.3829   -0.6509 H   0  0  0  0  0  0  0  0  0  0  0  0
   -3.0589    1.0055    1.2272 H   0  0  0  0  0  0  0  0  0  0  0  0
   -1.7342    2.7913    0.2547 H   0  0  0  0  0  0  0  0  0  0  0  0
    0.4994    3.6148   -0.3978 H   0  0  0  0  0  0  0  0  0  0  0  0
    2.3663    1.9985   -0.6455 H   0  0  0  0  0  0  0  0  0  0  0  0
    3.5866   -1.4735    0.8729 H   0  0  0  0  0  0  0  0  0  0  0  0
    2.3065   -2.4862    0.1597 H   0  0  0  0  0  0  0  0  0  0  0  0
    1.9261   -1.3988    1.5142 H   0  0  0  0  0  0  0  0  0  0  0  0
   -0.9780   -1.9373    1.0398 H   0  0  0  0  0  0  0  0  0  0  0  0
    0.5269   -2.2257   -1.6106 H   0  0  0  0  0  0  0  0  0  0  0  0
   -0.2529   -3.5636   -0.6289 H   0  0  0  0  0  0  0  0  0  0  0  0
  1  2  2  0  0  0  0
  2  3  1  0  0  0  0
  3  4  4  0  0  0  0
  4  5  4  0  0  0  0
  5  6  4  0  0  0  0
  6  7  4  0  0  0  0
  7  8  1  0  0  0  0
  8  9  1  0  0  0  0
  3 10  4  0  0  0  0
  7 10  4  0  0  0  0
 10 11  1  0  0  0  0
 11 12  2  0  0  0  0
  1 13  1  0  0  0  0
  1 14  1  0  0  0  0
  2 15  1  0  0  0  0
  4 16  1  0  0  0  0
  5 17  1  0  0  0  0
  6 18  1  0  0  0  0
  9 19  1  0  0  0  0
  9 20  1  0  0  0  0
  9 21  1  0  0  0  0
 11 22  1  0  0  0  0
 12 23  1  0  0  0  0
 12 24  1  0  0  0  0
M  END
