37

C         -1.43349        2.32168       -1.38201
C         -0.90084        1.12090       -0.65631
C         -1.60857       -0.09199       -0.65499
C         -1.11300       -1.22760        0.02710
N         -1.84240       -2.47910        0.02350
C         -1.13040       -3.73570        0.10930
C         -1.71334       -4.86694        0.72291
C         -1.02014       -6.07813        0.79890
C          0.26601       -6.18483        0.26964
C          0.86161       -5.08100       -0.33967
C          0.17262       -3.86815       -0.42318
C         -3.28690       -2.48290       -0.05640
C         -4.02008       -1.27681       -0.13248
C         -5.41577       -1.29041       -0.21132
C         -6.10715       -2.50186       -0.21164
C         -5.40450       -3.70409       -0.13638
C         -4.00955       -3.69823       -0.06181
C          0.11759       -1.10221        0.71018
C          0.82067        0.10416        0.70830
C          0.31572        1.21124        0.02871
H         -2.40321        2.10356       -1.87800
H         -0.70684        2.63998       -2.15890
H         -1.58597        3.15482       -0.66401
H         -2.55528       -0.14048       -1.17670
H         -2.71443       -4.82354        1.13100
H         -1.48316       -6.93688        1.26761
H          0.80122       -7.12358        0.33120
H          1.86103       -5.16309       -0.74727
H          0.66919       -3.02833       -0.89092
H         -3.51552       -0.31989       -0.14860
H         -5.96252       -0.35840       -0.27424
H         -7.18791       -2.50970       -0.27098
H         -5.94120       -4.64389       -0.13322
H         -3.49751       -4.64869        0.00878
H          0.55231       -1.94175        1.23506
H          1.76434        0.17913        1.23327
H          0.87284        2.14024        0.03555
37

C          2.14459        0.22823        1.42510
C          0.83139        0.10739        0.70876
C          0.12487       -1.10616        0.70044
C         -1.11300       -1.22760        0.02710
N         -1.84240       -2.47910        0.02350
C         -1.13040       -3.73570        0.10930
C          0.27912       -3.77385        0.19782
C          0.95923       -4.99179        0.28360
C          0.25031       -6.19308        0.27907
C         -1.14130       -6.17960        0.19145
C         -1.82812       -4.96538        0.10991
C         -3.28690       -2.48290       -0.05640
C         -3.98407       -3.54518       -0.67568
C         -5.38025       -3.54111       -0.74646
C         -6.10746       -2.47998       -0.20723
C         -5.44060       -1.42074        0.40764
C         -4.04584       -1.42027        0.48591
C         -1.61595       -0.08798       -0.63998
C         -0.91280        1.11831       -0.63117
C          0.30484        1.21755        0.03962
H          2.43676       -0.72817        1.90871
H          2.06973        1.00917        2.21086
H          2.93879        0.51377        0.70357
H          0.55349       -1.95920        1.20975
H          0.85939       -2.86090        0.21832
H          2.03910       -5.00337        0.35619
H          0.77960       -7.13495        0.34407
H         -1.69099       -7.11207        0.18450
H         -2.90682       -4.99164        0.03012
H         -3.45264       -4.39068       -1.09192
H         -5.89970       -4.36454       -1.21942
H         -7.18833       -2.47828       -0.26486
H         -6.00474       -0.59582        0.82300
H         -3.56072       -0.57625        0.95798
H         -2.56493       -0.11807       -1.15750
H         -1.31691        1.98179       -1.14382
H          0.83852        2.16023        0.03833
37

C         -1.43349        2.32168       -1.38201
C         -0.90084        1.12090       -0.65631
C         -1.60857       -0.09199       -0.65499
C         -1.11300       -1.22760        0.02710
N         -1.84240       -2.47910        0.02350
C         -1.13040       -3.73570        0.10930
C          0.27912       -3.77385        0.19782
C          0.95923       -4.99179        0.28360
C          0.25031       -6.19308        0.27907
C         -1.14130       -6.17960        0.19145
C         -1.82812       -4.96538        0.10991
C         -3.28690       -2.48290       -0.05640
C         -3.98407       -3.54518       -0.67568
C         -5.38025       -3.54111       -0.74646
C         -6.10746       -2.47998       -0.20723
C         -5.44060       -1.42074        0.40764
C         -4.04584       -1.42027        0.48591
C          0.11759       -1.10221        0.71018
C          0.82067        0.10416        0.70830
C          0.31572        1.21124        0.02871
H         -2.40321        2.10356       -1.87800
H         -0.70684        2.63998       -2.15890
H         -1.58597        3.15482       -0.66401
H         -2.55528       -0.14048       -1.17670
H          0.85939       -2.86090        0.21832
H          2.03910       -5.00337        0.35619
H          0.77960       -7.13495        0.34407
H         -1.69099       -7.11207        0.18450
H         -2.90682       -4.99164        0.03012
H         -3.45264       -4.39068       -1.09192
H         -5.89970       -4.36454       -1.21942
H         -7.18833       -2.47828       -0.26486
H         -6.00474       -0.59582        0.82300
H         -3.56072       -0.57625        0.95798
H          0.55231       -1.94175        1.23506
H          1.76434        0.17913        1.23327
H          0.87284        2.14024        0.03555
37

C          2.14459        0.22823        1.42510
C          0.83139        0.10739        0.70876
C          0.12487       -1.10616        0.70044
C         -1.11300       -1.22760        0.02710
N         -1.84240       -2.47910        0.02350
C         -1.13040       -3.73570        0.10930
C         -1.71334       -4.86694        0.72291
C         -1.02014       -6.07813        0.79890
C          0.26601       -6.18483        0.26964
C          0.86161       -5.08100       -0.33967
C          0.17262       -3.86815       -0.42318
C         -3.28690       -2.48290       -0.05640
C         -4.02008       -1.27681       -0.13248
C         -5.41577       -1.29041       -0.21132
C         -6.10715       -2.50186       -0.21164
C         -5.40450       -3.70409       -0.13638
C         -4.00955       -3.69823       -0.06181
C         -1.61595       -0.08798       -0.63998
C         -0.91280        1.11831       -0.63117
C          0.30484        1.21755        0.03962
H          2.43676       -0.72817        1.90871
H          2.06973        1.00917        2.21086
H          2.93879        0.51377        0.70357
H          0.55349       -1.95920        1.20975
H         -2.71443       -4.82354        1.13100
H         -1.48316       -6.93688        1.26761
H          0.80122       -7.12358        0.33120
H          1.86103       -5.16309       -0.74727
H          0.66919       -3.02833       -0.89092
H         -3.51552       -0.31989       -0.14860
H         -5.96252       -0.35840       -0.27424
H         -7.18791       -2.50970       -0.27098
H         -5.94120       -4.64389       -0.13322
H         -3.49751       -4.64869        0.00878
H         -2.56493       -0.11807       -1.15750
H         -1.31691        1.98179       -1.14382
H          0.83852        2.16023        0.03833
37

C         -1.81073        2.53790       -0.11406
C         -1.08483        1.22636       -0.04204
C         -1.79032        0.01218       -0.04103
C         -1.11300       -1.22760        0.02710
N         -1.84240       -2.47910        0.02350
C         -1.13040       -3.73570        0.10930
C         -1.71334       -4.86694        0.72291
C         -1.02014       -6.07813        0.79890
C          0.26601       -6.18483        0.26964
C          0.86161       -5.08100       -0.33967
C          0.17262       -3.86815       -0.42318
C         -3.28690       -2.48290       -0.05640
C         -3.98407       -3.54518       -0.67568
C         -5.38025       -3.54111       -0.74646
C         -6.10746       -2.47998       -0.20723
C         -5.44060       -1.42074        0.40764
C         -4.04584       -1.42027        0.48591
C          0.29816       -1.20568        0.09656
C          0.99886        0.00207        0.09547
C          0.31253        1.21310        0.02622
H         -2.91117        2.39467       -0.16361
H         -1.48882        3.09246       -1.02055
H         -1.57583        3.14474        0.78563
H         -2.87132        0.04056       -0.07875
H         -2.71443       -4.82354        1.13100
H         -1.48316       -6.93688        1.26761
H          0.80122       -7.12358        0.33120
H          1.86103       -5.16309       -0.74727
H          0.66919       -3.02833       -0.89092
H         -3.45264       -4.39068       -1.09192
H         -5.89970       -4.36454       -1.21942
H         -7.18833       -2.47828       -0.26486
H         -6.00474       -0.59582        0.82300
H         -3.56072       -0.57625        0.95798
H          0.86913       -2.12323        0.13415
H          2.08021       -0.00183        0.14421
H          0.86983        2.14202        0.02548
37

C         -1.43349        2.32168       -1.38201
C         -0.90084        1.12090       -0.65631
C         -1.60857       -0.09199       -0.65499
C         -1.11300       -1.22760        0.02710
N         -1.84240       -2.47910        0.02350
C         -1.13040       -3.73570        0.10930
C         -1.71334       -4.86694        0.72291
C         -1.02014       -6.07813        0.79890
C          0.26601       -6.18483        0.26964
C          0.86161       -5.08100       -0.33967
C          0.17262       -3.86815       -0.42318
C         -3.28690       -2.48290       -0.05640
C         -3.98407       -3.54518       -0.67568
C         -5.38025       -3.54111       -0.74646
C         -6.10746       -2.47998       -0.20723
C         -5.44060       -1.42074        0.40764
C         -4.04584       -1.42027        0.48591
C          0.11759       -1.10221        0.71018
C          0.82067        0.10416        0.70830
C          0.31572        1.21124        0.02871
H         -2.40321        2.10356       -1.87800
H         -0.70684        2.63998       -2.15890
H         -1.58597        3.15482       -0.66401
H         -2.55528       -0.14048       -1.17670
H         -2.71443       -4.82354        1.13100
H         -1.48316       -6.93688        1.26761
H          0.80122       -7.12358        0.33120
H          1.86103       -5.16309       -0.74727
H          0.66919       -3.02833       -0.89092
H         -3.45264       -4.39068       -1.09192
H         -5.89970       -4.36454       -1.21942
H         -7.18833       -2.47828       -0.26486
H         -6.00474       -0.59582        0.82300
H         -3.56072       -0.57625        0.95798
H          0.55231       -1.94175        1.23506
H          1.76434        0.17913        1.23327
H          0.87284        2.14024        0.03555
37

C          2.14459        0.22823        1.42510
C          0.83139        0.10739        0.70876
C          0.12487       -1.10616        0.70044
C         -1.11300       -1.22760        0.02710
N         -1.84240       -2.47910        0.02350
C         -1.13040       -3.73570        0.10930
C         -1.71334       -4.86694        0.72291
C         -1.02014       -6.07813        0.79890
C          0.26601       -6.18483        0.26964
C          0.86161       -5.08100       -0.33967
C          0.17262       -3.86815       -0.42318
C         -3.28690       -2.48290       -0.05640
C         -3.98407       -3.54518       -0.67568
C         -5.38025       -3.54111       -0.74646
C         -6.10746       -2.47998       -0.20723
C         -5.44060       -1.42074        0.40764
C         -4.04584       -1.42027        0.48591
C         -1.61595       -0.08798       -0.63998
C         -0.91280        1.11831       -0.63117
C          0.30484        1.21755        0.03962
H          2.43676       -0.72817        1.90871
H          2.06973        1.00917        2.21086
H          2.93879        0.51377        0.70357
H          0.55349       -1.95920        1.20975
H         -2.71443       -4.82354        1.13100
H         -1.48316       -6.93688        1.26761
H          0.80122       -7.12358        0.33120
H          1.86103       -5.16309       -0.74727
H          0.66919       -3.02833       -0.89092
H         -3.45264       -4.39068       -1.09192
H         -5.89970       -4.36454       -1.21942
H         -7.18833       -2.47828       -0.26486
H         -6.00474       -0.59582        0.82300
H         -3.56072       -0.57625        0.95798
H         -2.56493       -0.11807       -1.15750
H         -1.31691        1.98179       -1.14382
H          0.83852        2.16023        0.03833
37

C          2.50507        0.02162        0.21346
C          1.00720        0.00661        0.12176
C          0.29854       -1.20570        0.11376
C         -1.11300       -1.22760        0.02710
N         -1.84240       -2.47910        0.02350
C         -1.13040       -3.73570        0.10930
C         -1.71334       -4.86694        0.72291
C         -1.02014       -6.07813        0.79890
C          0.26601       -6.18483        0.26964
C          0.86161       -5.08100       -0.33967
C          0.17262       -3.86815       -0.42318
C         -3.28690       -2.48290       -0.05640
C         -3.98407       -3.54518       -0.67568
C         -5.38025       -3.54111       -0.74646
C         -6.10746       -2.47998       -0.20723
C         -5.44060       -1.42074        0.40764
C         -4.04584       -1.42027        0.48591
C         -1.78850        0.01089       -0.05362
C         -1.08307        1.21587       -0.04554
C          0.30789        1.21576        0.04199
H          2.92216       -1.00636        0.27046
H          2.81699        0.57678        1.12307
H          2.92910        0.52340       -0.68170
H          0.85550       -2.13220        0.16057
H         -2.71443       -4.82354        1.13100
H         -1.48316       -6.93688        1.26761
H          0.80122       -7.12358        0.33120
H          1.86103       -5.16309       -0.74727
H          0.66919       -3.02833       -0.89092
H         -3.45264       -4.39068       -1.09192
H         -5.89970       -4.36454       -1.21942
H         -7.18833       -2.47828       -0.26486
H         -6.00474       -0.59582        0.82300
H         -3.56072       -0.57625        0.95798
H         -2.86768        0.05535       -0.10548
H         -1.61876        2.15472       -0.10313
H          0.84140        2.15852        0.04795
37

C          2.50507        0.02162        0.21346
C          1.00720        0.00661        0.12176
C          0.29854       -1.20570        0.11376
C         -1.11300       -1.22760        0.02710
N         -1.84240       -2.47910        0.02350
C         -1.13040       -3.73570        0.10930
C          0.10485       -3.83228        0.78818
C          0.78483       -5.05061        0.86929
C          0.25062       -6.19326        0.27376
C         -0.96677       -6.12126       -0.40241
C         -1.65429       -4.90742       -0.48362
C         -3.28690       -2.48290       -0.05640
C         -3.98688       -1.45250       -0.72446
C         -5.38285       -1.46561       -0.79819
C         -6.10747       -2.49998       -0.20604
C         -5.43791       -3.52660        0.45914
C         -4.04291       -3.52231        0.53297
C         -1.78850        0.01089       -0.05362
C         -1.08307        1.21587       -0.04554
C          0.30789        1.21576        0.04199
H          2.92216       -1.00636        0.27046
H          2.81699        0.57678        1.12307
H          2.92910        0.52340       -0.68170
H          0.85550       -2.13220        0.16057
H          0.54096       -2.96928        1.27360
H          1.72764       -5.10872        1.39772
H          0.78005       -7.13519        0.33677
H         -1.37944       -7.00737       -0.86741
H         -2.58976       -4.88415       -1.02677
H         -3.45614       -0.64242       -1.20678
H         -5.90397       -0.67194       -1.31785
H         -7.18836       -2.50695       -0.26297
H         -6.00037       -4.32733        0.92147
H         -3.55695       -4.32729        1.06813
H         -2.86768        0.05535       -0.10548
H         -1.61876        2.15472       -0.10313
H          0.84140        2.15852        0.04795
37

C         -1.81073        2.53790       -0.11406
C         -1.08483        1.22636       -0.04204
C         -1.79032        0.01218       -0.04103
C         -1.11300       -1.22760        0.02710
N         -1.84240       -2.47910        0.02350
C         -1.13040       -3.73570        0.10930
C          0.10485       -3.83228        0.78818
C          0.78483       -5.05061        0.86929
C          0.25062       -6.19326        0.27376
C         -0.96677       -6.12126       -0.40241
C         -1.65429       -4.90742       -0.48362
C         -3.28690       -2.48290       -0.05640
C         -3.98688       -1.45250       -0.72446
C         -5.38285       -1.46561       -0.79819
C         -6.10747       -2.49998       -0.20604
C         -5.43791       -3.52660        0.45914
C         -4.04291       -3.52231        0.53297
C          0.29816       -1.20568        0.09656
C          0.99886        0.00207        0.09547
C          0.31253        1.21310        0.02622
H         -2.91117        2.39467       -0.16361
H         -1.48882        3.09246       -1.02055
H         -1.57583        3.14474        0.78563
H         -2.87132        0.04056       -0.07875
H          0.54096       -2.96928        1.27360
H          1.72764       -5.10872        1.39772
H          0.78005       -7.13519        0.33677
H         -1.37944       -7.00737       -0.86741
H         -2.58976       -4.88415       -1.02677
H         -3.45614       -0.64242       -1.20678
H         -5.90397       -0.67194       -1.31785
H         -7.18836       -2.50695       -0.26297
H         -6.00037       -4.32733        0.92147
H         -3.55695       -4.32729        1.06813
H          0.86913       -2.12323        0.13415
H          2.08021       -0.00183        0.14421
H          0.86983        2.14202        0.02548
