
 OpenBabel02012213383D

 37 39  0  0  0  0  0  0  0  0999 V2000
    2.3136    0.1509   -1.0475 C   0  0  0  0  0  0  0  0  0  0  0  0
    0.9105    0.0894   -0.5182 C   0  0  0  0  0  0  0  0  0  0  0  0
    0.1729   -1.1071   -0.5642 C   0  0  0  0  0  0  0  0  0  0  0  0
   -1.1120   -1.2077    0.0072 C   0  0  0  0  0  0  0  0  0  0  0  0
   -1.8432   -2.4651    0.0041 N   0  0  0  0  0  0  0  0  0  0  0  0
   -1.1277   -3.7284    0.0883 C   0  0  0  0  0  0  0  0  0  0  0  0
    0.0351   -3.8642    0.8697 C   0  0  0  0  0  0  0  0  0  0  0  0
    0.7190   -5.0817    0.9466 C   0  0  0  0  0  0  0  0  0  0  0  0
    0.2361   -6.1991    0.2713 C   0  0  0  0  0  0  0  0  0  0  0  0
   -0.9191   -6.0955   -0.4976 C   0  0  0  0  0  0  0  0  0  0  0  0
   -1.5821   -4.8693   -0.6019 C   0  0  0  0  0  0  0  0  0  0  0  0
   -3.2958   -2.4749   -0.0588 C   0  0  0  0  0  0  0  0  0  0  0  0
   -4.0070   -1.5344   -0.8243 C   0  0  0  0  0  0  0  0  0  0  0  0
   -5.4046   -1.5494   -0.8795 C   0  0  0  0  0  0  0  0  0  0  0  0
   -6.1225   -2.5256   -0.1940 C   0  0  0  0  0  0  0  0  0  0  0  0
   -5.4430   -3.4769    0.5609 C   0  0  0  0  0  0  0  0  0  0  0  0
   -4.0482   -3.4409    0.6415 C   0  0  0  0  0  0  0  0  0  0  0  0
   -1.6515   -0.0466    0.5880 C   0  0  0  0  0  0  0  0  0  0  0  0
   -0.9532    1.1640    0.5839 C   0  0  0  0  0  0  0  0  0  0  0  0
    0.3271    1.2293    0.0372 C   0  0  0  0  0  0  0  0  0  0  0  0
    2.6740   -0.8390   -1.3473 H   0  0  0  0  0  0  0  0  0  0  0  0
    2.9919    0.5255   -0.2704 H   0  0  0  0  0  0  0  0  0  0  0  0
    2.3635    0.8118   -1.9164 H   0  0  0  0  0  0  0  0  0  0  0  0
    0.6181   -1.9735   -1.0458 H   0  0  0  0  0  0  0  0  0  0  0  0
    0.4181   -3.0189    1.4375 H   0  0  0  0  0  0  0  0  0  0  0  0
    1.6254   -5.1557    1.5427 H   0  0  0  0  0  0  0  0  0  0  0  0
    0.7580   -7.1491    0.3456 H   0  0  0  0  0  0  0  0  0  0  0  0
   -1.3066   -6.9663   -1.0195 H   0  0  0  0  0  0  0  0  0  0  0  0
   -2.4654   -4.8124   -1.2340 H   0  0  0  0  0  0  0  0  0  0  0  0
   -3.4748   -0.7793   -1.3985 H   0  0  0  0  0  0  0  0  0  0  0  0
   -5.9309   -0.7976   -1.4632 H   0  0  0  0  0  0  0  0  0  0  0  0
   -7.2072   -2.5451   -0.2490 H   0  0  0  0  0  0  0  0  0  0  0  0
   -5.9957   -4.2491    1.0902 H   0  0  0  0  0  0  0  0  0  0  0  0
   -3.5493   -4.1807    1.2638 H   0  0  0  0  0  0  0  0  0  0  0  0
   -2.6289   -0.0718    1.0675 H   0  0  0  0  0  0  0  0  0  0  0  0
   -1.4047    2.0520    1.0178 H   0  0  0  0  0  0  0  0  0  0  0  0
    0.8698    2.1701    0.0595 H   0  0  0  0  0  0  0  0  0  0  0  0
  1  2  1  0  0  0  0
  1 21  1  0  0  0  0
  1 22  1  0  0  0  0
  1 23  1  0  0  0  0
  2  3  1  0  0  0  0
  2 20  2  0  0  0  0
  3  4  2  0  0  0  0
  3 24  1  0  0  0  0
  4  5  1  0  0  0  0
  4 18  1  0  0  0  0
  5  6  1  0  0  0  0
  5 12  1  0  0  0  0
  6  7  1  0  0  0  0
  6 11  2  0  0  0  0
  7  8  2  0  0  0  0
  7 25  1  0  0  0  0
  8  9  1  0  0  0  0
  8 26  1  0  0  0  0
  9 10  2  0  0  0  0
  9 27  1  0  0  0  0
 10 11  1  0  0  0  0
 10 28  1  0  0  0  0
 11 29  1  0  0  0  0
 12 13  1  0  0  0  0
 12 17  2  0  0  0  0
 13 14  2  0  0  0  0
 13 30  1  0  0  0  0
 14 15  1  0  0  0  0
 14 31  1  0  0  0  0
 15 16  2  0  0  0  0
 15 32  1  0  0  0  0
 16 17  1  0  0  0  0
 16 33  1  0  0  0  0
 17 34  1  0  0  0  0
 18 19  2  0  0  0  0
 18 35  1  0  0  0  0
 19 20  1  0  0  0  0
 19 36  1  0  0  0  0
 20 37  1  0  0  0  0
M  END
