
  xtb     02012213383D
 xtb: 6.4.1 (23d549d)
 37 39  0     0  0            999 V2000
   -1.3627    2.1215   -1.6760 c   0  0  0  0  0  0  0  0  0  0  0  0
   -0.8980    0.9935   -0.8052 c   0  0  0  0  0  0  0  0  0  0  0  0
   -1.5722   -0.2155   -0.7901 c   0  0  0  0  0  0  0  0  0  0  0  0
   -1.1478   -1.2655    0.0231 c   0  0  0  0  0  0  0  0  0  0  0  0
   -1.8521   -2.4764    0.0370 n   0  0  0  0  0  0  0  0  0  0  0  0
   -1.1541   -3.6834    0.1508 c   0  0  0  0  0  0  0  0  0  0  0  0
   -1.6655   -4.7315    0.9157 c   0  0  0  0  0  0  0  0  0  0  0  0
   -0.9679   -5.9188    1.0248 c   0  0  0  0  0  0  0  0  0  0  0  0
    0.2490   -6.0801    0.3832 c   0  0  0  0  0  0  0  0  0  0  0  0
    0.7627   -5.0415   -0.3763 c   0  0  0  0  0  0  0  0  0  0  0  0
    0.0693   -3.8534   -0.4976 c   0  0  0  0  0  0  0  0  0  0  0  0
   -3.2483   -2.4728   -0.0322 c   0  0  0  0  0  0  0  0  0  0  0  0
   -3.9854   -1.4587    0.5800 c   0  0  0  0  0  0  0  0  0  0  0  0
   -5.3640   -1.4533    0.5004 c   0  0  0  0  0  0  0  0  0  0  0  0
   -6.0325   -2.4586   -0.1787 c   0  0  0  0  0  0  0  0  0  0  0  0
   -5.3064   -3.4715   -0.7835 c   0  0  0  0  0  0  0  0  0  0  0  0
   -3.9268   -3.4806   -0.7178 c   0  0  0  0  0  0  0  0  0  0  0  0
   -0.0192   -1.0938    0.8216 c   0  0  0  0  0  0  0  0  0  0  0  0
    0.6623    0.1081    0.7988 c   0  0  0  0  0  0  0  0  0  0  0  0
    0.2280    1.1482   -0.0028 c   0  0  0  0  0  0  0  0  0  0  0  0
   -2.2566    1.8449   -2.2292 h   0  0  0  0  0  0  0  0  0  0  0  0
   -0.5844    2.3979   -2.3862 h   0  0  0  0  0  0  0  0  0  0  0  0
   -1.5854    2.9990   -1.0702 h   0  0  0  0  0  0  0  0  0  0  0  0
   -2.4422   -0.3544   -1.4161 h   0  0  0  0  0  0  0  0  0  0  0  0
   -2.6091   -4.6053    1.4267 h   0  0  0  0  0  0  0  0  0  0  0  0
   -1.3740   -6.7207    1.6242 h   0  0  0  0  0  0  0  0  0  0  0  0
    0.7933   -7.0079    0.4743 h   0  0  0  0  0  0  0  0  0  0  0  0
    1.7081   -5.1603   -0.8851 h   0  0  0  0  0  0  0  0  0  0  0  0
    0.4681   -3.0475   -1.0963 h   0  0  0  0  0  0  0  0  0  0  0  0
   -3.4683   -0.6786    1.1192 h   0  0  0  0  0  0  0  0  0  0  0  0
   -5.9209   -0.6618    0.9804 h   0  0  0  0  0  0  0  0  0  0  0  0
   -7.1104   -2.4526   -0.2359 h   0  0  0  0  0  0  0  0  0  0  0  0
   -5.8182   -4.2574   -1.3198 h   0  0  0  0  0  0  0  0  0  0  0  0
   -3.3640   -4.2663   -1.2000 h   0  0  0  0  0  0  0  0  0  0  0  0
    0.3139   -1.9005    1.4576 h   0  0  0  0  0  0  0  0  0  0  0  0
    1.5350    0.2365    1.4222 h   0  0  0  0  0  0  0  0  0  0  0  0
    0.7624    2.0867   -0.0089 h   0  0  0  0  0  0  0  0  0  0  0  0
  1  2  1  0  0  0  0
  2  3  4  0  0  0  0
  3  4  4  0  0  0  0
  4  5  1  0  0  0  0
  5  6  1  0  0  0  0
  6  7  4  0  0  0  0
  7  8  4  0  0  0  0
  8  9  4  0  0  0  0
  9 10  4  0  0  0  0
  6 11  4  0  0  0  0
 10 11  4  0  0  0  0
  5 12  1  0  0  0  0
 12 13  4  0  0  0  0
 13 14  4  0  0  0  0
 14 15  4  0  0  0  0
 15 16  4  0  0  0  0
 12 17  4  0  0  0  0
 16 17  4  0  0  0  0
  4 18  4  0  0  0  0
 18 19  4  0  0  0  0
  2 20  4  0  0  0  0
 19 20  4  0  0  0  0
  1 21  1  0  0  0  0
  1 22  1  0  0  0  0
  1 23  1  0  0  0  0
  3 24  1  0  0  0  0
  7 25  1  0  0  0  0
  8 26  1  0  0  0  0
  9 27  1  0  0  0  0
 10 28  1  0  0  0  0
 11 29  1  0  0  0  0
 13 30  1  0  0  0  0
 14 31  1  0  0  0  0
 15 32  1  0  0  0  0
 16 33  1  0  0  0  0
 17 34  1  0  0  0  0
 18 35  1  0  0  0  0
 19 36  1  0  0  0  0
 20 37  1  0  0  0  0
M  END
