
  xtb     02012213483D
 xtb: 6.4.1 (23d549d)
 44 46  0     0  0            999 V2000
    2.4698    0.0532    0.0517 c   0  0  0  0  0  0  0  0  0  0  0  0
    0.9713    0.0251    0.0551 c   0  0  0  0  0  0  0  0  0  0  0  0
    0.2479    0.5377    1.1241 c   0  0  0  0  0  0  0  0  0  0  0  0
   -1.1343    0.5239    1.1191 c   0  0  0  0  0  0  0  0  0  0  0  0
   -1.8340   -0.0008    0.0377 c   0  0  0  0  0  0  0  0  0  0  0  0
   -3.3084   -0.0021    0.0016 c   0  0  0  0  0  0  0  0  0  0  0  0
   -3.9448    0.6093   -1.0730 c   0  0  0  0  0  0  0  0  0  0  0  0
   -5.3248    0.6688   -1.1868 c   0  0  0  0  0  0  0  0  0  0  0  0
   -5.9374    1.3368   -2.3826 c   0  0  0  0  0  0  0  0  0  0  0  0
   -6.0989    0.0763   -0.1858 c   0  0  0  0  0  0  0  0  0  0  0  0
   -7.5733    0.0816   -0.2179 c   0  0  0  0  0  0  0  0  0  0  0  0
   -8.2759   -1.1168   -0.1411 c   0  0  0  0  0  0  0  0  0  0  0  0
   -9.6578   -1.1272   -0.1522 c   0  0  0  0  0  0  0  0  0  0  0  0
  -10.3789    0.0573   -0.2286 c   0  0  0  0  0  0  0  0  0  0  0  0
  -11.8773    0.0488   -0.2600 c   0  0  0  0  0  0  0  0  0  0  0  0
   -9.6761    1.2546   -0.2932 c   0  0  0  0  0  0  0  0  0  0  0  0
   -8.2947    1.2693   -0.2901 c   0  0  0  0  0  0  0  0  0  0  0  0
   -5.4620   -0.5633    0.8721 c   0  0  0  0  0  0  0  0  0  0  0  0
   -4.0822   -0.6108    0.9930 c   0  0  0  0  0  0  0  0  0  0  0  0
   -3.4678   -1.3300    2.1577 c   0  0  0  0  0  0  0  0  0  0  0  0
   -1.1103   -0.5034   -1.0397 c   0  0  0  0  0  0  0  0  0  0  0  0
    0.2710   -0.4948   -1.0269 c   0  0  0  0  0  0  0  0  0  0  0  0
    2.8603    0.1235    1.0642 h   0  0  0  0  0  0  0  0  0  0  0  0
    2.8255    0.9182   -0.5096 h   0  0  0  0  0  0  0  0  0  0  0  0
    2.8725   -0.8401   -0.4212 h   0  0  0  0  0  0  0  0  0  0  0  0
    0.7740    0.9538    1.9721 h   0  0  0  0  0  0  0  0  0  0  0  0
   -1.6788    0.9400    1.9539 h   0  0  0  0  0  0  0  0  0  0  0  0
   -3.3351    1.0647   -1.8418 h   0  0  0  0  0  0  0  0  0  0  0  0
   -5.3012    1.2037   -3.2554 h   0  0  0  0  0  0  0  0  0  0  0  0
   -6.0413    2.4082   -2.2086 h   0  0  0  0  0  0  0  0  0  0  0  0
   -6.9231    0.9309   -2.5973 h   0  0  0  0  0  0  0  0  0  0  0  0
   -7.7294   -2.0477   -0.0864 h   0  0  0  0  0  0  0  0  0  0  0  0
  -10.1853   -2.0695   -0.0987 h   0  0  0  0  0  0  0  0  0  0  0  0
  -12.2703   -0.8707    0.1675 h   0  0  0  0  0  0  0  0  0  0  0  0
  -12.2297    0.1217   -1.2897 h   0  0  0  0  0  0  0  0  0  0  0  0
  -12.2807    0.8956    0.2916 h   0  0  0  0  0  0  0  0  0  0  0  0
  -10.2204    2.1875   -0.3443 h   0  0  0  0  0  0  0  0  0  0  0  0
   -7.7670    2.2111   -0.3234 h   0  0  0  0  0  0  0  0  0  0  0  0
   -6.0715   -1.0305    1.6338 h   0  0  0  0  0  0  0  0  0  0  0  0
   -4.0951   -2.1674    2.4569 h   0  0  0  0  0  0  0  0  0  0  0  0
   -3.3776   -0.6609    3.0140 h   0  0  0  0  0  0  0  0  0  0  0  0
   -2.4756   -1.7005    1.9112 h   0  0  0  0  0  0  0  0  0  0  0  0
   -1.6404   -0.9187   -1.8852 h   0  0  0  0  0  0  0  0  0  0  0  0
    0.8167   -0.8981   -1.8687 h   0  0  0  0  0  0  0  0  0  0  0  0
  1  2  1  0  0  0  0
  2  3  4  0  0  0  0
  3  4  4  0  0  0  0
  4  5  4  0  0  0  0
  5  6  1  0  0  0  0
  6  7  4  0  0  0  0
  7  8  4  0  0  0  0
  8  9  1  0  0  0  0
  8 10  4  0  0  0  0
 10 11  1  0  0  0  0
 11 12  4  0  0  0  0
 12 13  4  0  0  0  0
 13 14  4  0  0  0  0
 14 15  1  0  0  0  0
 14 16  4  0  0  0  0
 11 17  4  0  0  0  0
 16 17  4  0  0  0  0
 10 18  4  0  0  0  0
  6 19  4  0  0  0  0
 18 19  4  0  0  0  0
 19 20  1  0  0  0  0
  5 21  4  0  0  0  0
  2 22  4  0  0  0  0
 21 22  4  0  0  0  0
  1 23  1  0  0  0  0
  1 24  1  0  0  0  0
  1 25  1  0  0  0  0
  3 26  1  0  0  0  0
  4 27  1  0  0  0  0
  7 28  1  0  0  0  0
  9 29  1  0  0  0  0
  9 30  1  0  0  0  0
  9 31  1  0  0  0  0
 12 32  1  0  0  0  0
 13 33  1  0  0  0  0
 15 34  1  0  0  0  0
 15 35  1  0  0  0  0
 15 36  1  0  0  0  0
 16 37  1  0  0  0  0
 17 38  1  0  0  0  0
 18 39  1  0  0  0  0
 20 40  1  0  0  0  0
 20 41  1  0  0  0  0
 20 42  1  0  0  0  0
 21 43  1  0  0  0  0
 22 44  1  0  0  0  0
M  END
