
  xtb     02032211353D
 xtb: 6.4.1 (23d549d)
 19 19  0     0  0            999 V2000
   -2.7693    0.8960   -0.3535 C   0  0  0  0  0  0  0  0  0  0  0  0
   -2.1984   -0.1396    0.2458 C   0  0  0  0  0  0  0  0  0  0  0  0
   -0.7952   -0.5003    0.1646 C   0  0  0  0  0  0  0  0  0  0  0  0
   -0.4781   -1.7837    0.2529 N   0  0  0  0  0  0  0  0  0  0  0  0
    0.8446   -1.8600    0.0507 N   0  0  0  0  0  0  0  0  0  0  0  0
    1.3982   -0.6455   -0.1593 C   0  0  0  0  0  0  0  0  0  0  0  0
    2.7583   -0.4707   -0.2987 N   0  0  0  0  0  0  0  0  0  0  0  0
    0.3674    0.2879   -0.0853 C   0  0  0  0  0  0  0  0  0  0  0  0
    0.5641    1.7202   -0.1755 C   0  0  0  0  0  0  0  0  0  0  0  0
   -0.1492    2.6485    0.4486 C   0  0  0  0  0  0  0  0  0  0  0  0
   -3.8288    1.0727   -0.2778 H   0  0  0  0  0  0  0  0  0  0  0  0
   -2.2049    1.5988   -0.9422 H   0  0  0  0  0  0  0  0  0  0  0  0
   -2.7959   -0.8554    0.7947 H   0  0  0  0  0  0  0  0  0  0  0  0
    1.3100   -2.7516    0.1006 H   0  0  0  0  0  0  0  0  0  0  0  0
    3.2564   -1.2593   -0.6840 H   0  0  0  0  0  0  0  0  0  0  0  0
    3.0151    0.4068   -0.7253 H   0  0  0  0  0  0  0  0  0  0  0  0
    1.4133    2.0240   -0.7812 H   0  0  0  0  0  0  0  0  0  0  0  0
   -0.9774    2.3931    1.0861 H   0  0  0  0  0  0  0  0  0  0  0  0
    0.0758    3.6960    0.3420 H   0  0  0  0  0  0  0  0  0  0  0  0
  1  2  2  0  0  0  0
  2  3  1  0  0  0  0
  3  4  4  0  0  0  0
  4  5  1  0  0  0  0
  5  6  4  0  0  0  0
  6  7  1  0  0  0  0
  3  8  4  0  0  0  0
  6  8  4  0  0  0  0
  8  9  1  0  0  0  0
  9 10  2  0  0  0  0
  1 11  1  0  0  0  0
  1 12  1  0  0  0  0
  2 13  1  0  0  0  0
  5 14  1  0  0  0  0
  7 15  1  0  0  0  0
  7 16  1  0  0  0  0
  9 17  1  0  0  0  0
 10 18  1  0  0  0  0
 10 19  1  0  0  0  0
M  END
