
 OpenBabel02012214003D

 15 15  0  0  0  0  0  0  0  0999 V2000
    0.9098    0.1201    0.0922 C   0  0  0  0  0  0  0  0  0  0  0  0
    2.3915    0.0776    0.0948 C   0  0  0  0  0  0  0  0  0  0  0  0
    3.2895    1.1812    0.1025 C   0  0  0  0  0  0  0  0  0  0  0  0
    4.5583    0.6530    0.1013 C   0  0  0  0  0  0  0  0  0  0  0  0
    4.5072   -0.7022    0.0938 O   0  0  0  0  0  0  0  0  0  0  0  0
    3.1913   -1.0510    0.0900 C   0  0  0  0  0  0  0  0  0  0  0  0
    2.8934   -2.4985    0.0816 C   0  0  0  0  0  0  0  0  0  0  0  0
    0.5414    1.1507    0.0919 H   0  0  0  0  0  0  0  0  0  0  0  0
    0.5114   -0.3829    0.9793 H   0  0  0  0  0  0  0  0  0  0  0  0
    0.5144   -0.3823   -0.7966 H   0  0  0  0  0  0  0  0  0  0  0  0
    3.0416    2.2330    0.1079 H   0  0  0  0  0  0  0  0  0  0  0  0
    5.5502    1.0830    0.1057 H   0  0  0  0  0  0  0  0  0  0  0  0
    3.8093   -3.0970    0.0857 H   0  0  0  0  0  0  0  0  0  0  0  0
    2.3178   -2.7626   -0.8110 H   0  0  0  0  0  0  0  0  0  0  0  0
    2.3049   -2.7706    0.9634 H   0  0  0  0  0  0  0  0  0  0  0  0
  1  2  1  0  0  0  0
  1  8  1  0  0  0  0
  1  9  1  0  0  0  0
  1 10  1  0  0  0  0
  2  3  1  0  0  0  0
  2  6  2  0  0  0  0
  3  4  2  0  0  0  0
  3 11  1  0  0  0  0
  4  5  1  0  0  0  0
  4 12  1  0  0  0  0
  5  6  1  0  0  0  0
  6  7  1  0  0  0  0
  7 13  1  0  0  0  0
  7 14  1  0  0  0  0
  7 15  1  0  0  0  0
M  END
