19

C          0.96376       -0.14146       -0.05961
C          2.29500       -0.11970       -0.21090
C          3.02640        0.64170       -1.26310
C          4.24330        0.12630       -1.72860
N          4.94870        0.78200       -2.68310
C          4.51490        1.94880       -3.22280
C          3.30400        2.52490       -2.80750
C          2.89420        3.81110       -3.45070
C          2.16780        4.80391       -2.90709
F          1.68266        4.76888       -1.64183
F          1.89649        5.90308       -3.65872
C          2.56050        1.85290       -1.81440
H          0.52886       -0.72991        0.74213
H          0.28485        0.40333       -0.70148
H          2.88066       -0.70551        0.49271
H          4.63630       -0.80150       -1.33180
H          5.12050        2.42750       -3.98210
H          3.21661        3.96673       -4.47730
H          1.63330        2.25800       -1.46680
19

C          1.37682       -1.06773       -0.44276
C          2.29500       -0.11970       -0.21090
C          3.02640        0.64170       -1.26310
C          4.24330        0.12630       -1.72860
N          4.94870        0.78200       -2.68310
C          4.51490        1.94880       -3.22280
C          3.30400        2.52490       -2.80750
C          2.89420        3.81110       -3.45070
C          3.18262        5.05964       -3.04228
F          3.91688        5.33350       -1.93623
F          2.71459        6.10951       -3.76717
C          2.56050        1.85290       -1.81440
H          0.90046       -1.56387        0.39696
H          1.07703       -1.37283       -1.43611
H          2.51847        0.10635        0.82842
H          4.63630       -0.80150       -1.33180
H          5.12050        2.42750       -3.98210
H          2.29183        3.73446       -4.35256
H          1.63330        2.25800       -1.46680
19

C          2.44668        0.04987        1.10964
C          2.29500       -0.11970       -0.21090
C          3.02640        0.64170       -1.26310
C          4.24330        0.12630       -1.72860
N          4.94870        0.78200       -2.68310
C          4.51490        1.94880       -3.22280
C          3.30400        2.52490       -2.80750
C          2.89420        3.81110       -3.45070
C          2.14585        3.97206       -4.55655
F          1.64042        2.93901       -5.27407
F          1.87981        5.23274       -4.98857
C          2.56050        1.85290       -1.81440
H          1.86419       -0.55821        1.79459
H          3.12835        0.77041        1.54071
H          1.58100       -0.87348       -0.53225
H          4.63630       -0.80150       -1.33180
H          5.12050        2.42750       -3.98210
H          3.23952        4.72550       -2.97457
H          1.63330        2.25800       -1.46680
19

C          0.96376       -0.14146       -0.05961
C          2.29500       -0.11970       -0.21090
C          3.02640        0.64170       -1.26310
C          4.24330        0.12630       -1.72860
N          4.94870        0.78200       -2.68310
C          4.51490        1.94880       -3.22280
C          3.30400        2.52490       -2.80750
C          2.89420        3.81110       -3.45070
C          1.64388        4.25432       -3.67230
F          0.53228        3.55886       -3.32855
F          1.47465        5.46002       -4.27594
C          2.56050        1.85290       -1.81440
H          0.52886       -0.72991        0.74213
H          0.28485        0.40333       -0.70148
H          2.88066       -0.70551        0.49271
H          4.63630       -0.80150       -1.33180
H          5.12050        2.42750       -3.98210
H          3.69551        4.46754       -3.78095
H          1.63330        2.25800       -1.46680
19

C          1.50439        0.42330        0.72487
C          2.29500       -0.11970       -0.21090
C          3.02640        0.64170       -1.26310
C          4.24330        0.12630       -1.72860
N          4.94870        0.78200       -2.68310
C          4.51490        1.94880       -3.22280
C          3.30400        2.52490       -2.80750
C          2.89420        3.81110       -3.45070
C          1.64388        4.25432       -3.67230
F          0.53228        3.55886       -3.32855
F          1.47465        5.46002       -4.27594
C          2.56050        1.85290       -1.81440
H          1.01587       -0.22172        1.44840
H          1.32146        1.48639        0.80281
H          2.40693       -1.20065       -0.19489
H          4.63630       -0.80150       -1.33180
H          5.12050        2.42750       -3.98210
H          3.69551        4.46754       -3.78095
H          1.63330        2.25800       -1.46680
19

C          2.44668        0.04987        1.10964
C          2.29500       -0.11970       -0.21090
C          3.02640        0.64170       -1.26310
C          4.24330        0.12630       -1.72860
N          4.94870        0.78200       -2.68310
C          4.51490        1.94880       -3.22280
C          3.30400        2.52490       -2.80750
C          2.89420        3.81110       -3.45070
C          3.18262        5.05964       -3.04228
F          3.91688        5.33350       -1.93623
F          2.71459        6.10951       -3.76717
C          2.56050        1.85290       -1.81440
H          1.86419       -0.55821        1.79459
H          3.12835        0.77041        1.54071
H          1.58100       -0.87348       -0.53225
H          4.63630       -0.80150       -1.33180
H          5.12050        2.42750       -3.98210
H          2.29183        3.73446       -4.35256
H          1.63330        2.25800       -1.46680
19

C          1.37682       -1.06773       -0.44276
C          2.29500       -0.11970       -0.21090
C          3.02640        0.64170       -1.26310
C          4.24330        0.12630       -1.72860
N          4.94870        0.78200       -2.68310
C          4.51490        1.94880       -3.22280
C          3.30400        2.52490       -2.80750
C          2.89420        3.81110       -3.45070
C          2.14585        3.97206       -4.55655
F          1.64042        2.93901       -5.27407
F          1.87981        5.23274       -4.98857
C          2.56050        1.85290       -1.81440
H          0.90046       -1.56387        0.39696
H          1.07703       -1.37283       -1.43611
H          2.51847        0.10635        0.82842
H          4.63630       -0.80150       -1.33180
H          5.12050        2.42750       -3.98210
H          3.23952        4.72550       -2.97457
H          1.63330        2.25800       -1.46680
19

C          2.44668        0.04987        1.10964
C          2.29500       -0.11970       -0.21090
C          3.02640        0.64170       -1.26310
C          4.24330        0.12630       -1.72860
N          4.94870        0.78200       -2.68310
C          4.51490        1.94880       -3.22280
C          3.30400        2.52490       -2.80750
C          2.89420        3.81110       -3.45070
C          3.69542        4.77129       -3.94561
F          5.04891        4.70029       -3.92372
F          3.12848        5.87732       -4.49517
C          2.56050        1.85290       -1.81440
H          1.86419       -0.55821        1.79459
H          3.12835        0.77041        1.54071
H          1.58100       -0.87348       -0.53225
H          4.63630       -0.80150       -1.33180
H          5.12050        2.42750       -3.98210
H          1.82600        3.99799       -3.52879
H          1.63330        2.25800       -1.46680
19

C          1.37682       -1.06773       -0.44276
C          2.29500       -0.11970       -0.21090
C          3.02640        0.64170       -1.26310
C          4.24330        0.12630       -1.72860
N          4.94870        0.78200       -2.68310
C          4.51490        1.94880       -3.22280
C          3.30400        2.52490       -2.80750
C          2.89420        3.81110       -3.45070
C          3.18256        4.23330       -4.69466
F          3.92283        3.51582       -5.57483
F          2.71555        5.44362       -5.09935
C          2.56050        1.85290       -1.81440
H          0.90046       -1.56387        0.39696
H          1.07703       -1.37283       -1.43611
H          2.51847        0.10635        0.82842
H          4.63630       -0.80150       -1.33180
H          5.12050        2.42750       -3.98210
H          2.29479        4.48823       -2.84714
H          1.63330        2.25800       -1.46680
19

C          1.37682       -1.06773       -0.44276
C          2.29500       -0.11970       -0.21090
C          3.02640        0.64170       -1.26310
C          4.24330        0.12630       -1.72860
N          4.94870        0.78200       -2.68310
C          4.51490        1.94880       -3.22280
C          3.30400        2.52490       -2.80750
C          2.89420        3.81110       -3.45070
C          3.55487        4.50027       -4.39802
F          4.74122        4.10384       -4.92040
F          3.01547        5.65888       -4.85999
C          2.56050        1.85290       -1.81440
H          0.90046       -1.56387        0.39696
H          1.07703       -1.37283       -1.43611
H          2.51847        0.10635        0.82842
H          4.63630       -0.80150       -1.33180
H          5.12050        2.42750       -3.98210
H          1.95491        4.24507       -3.11683
H          1.63330        2.25800       -1.46680
