
  xtb     02032211293D
 xtb: 6.4.1 (23d549d)
 25 25  0     0  0            999 V2000
    1.3356    0.6703    0.0538 c   0  0  0  0  0  0  0  0  0  0  0  0
    2.3025   -0.2393    0.0189 c   0  0  0  0  0  0  0  0  0  0  0  0
    2.8781   -0.8324   -1.1777 c   0  0  0  0  0  0  0  0  0  0  0  0
    3.9505   -1.7279   -1.0697 c   0  0  0  0  0  0  0  0  0  0  0  0
    4.5684   -2.2675   -2.0918 n   0  0  0  0  0  0  0  0  0  0  0  0
    4.1643   -2.0108   -3.3367 c   0  0  0  0  0  0  0  0  0  0  0  0
    4.9704   -2.5854   -4.4050 c   0  0  0  0  0  0  0  0  0  0  0  0
    5.9177   -3.4895   -4.1811 c   0  0  0  0  0  0  0  0  0  0  0  0
    3.0431   -1.1864   -3.5640 c   0  0  0  0  0  0  0  0  0  0  0  0
    2.4410   -0.8825   -4.8872 c   0  0  0  0  0  0  0  0  0  0  0  0
    1.8657    0.1496   -5.1339 o   0  0  0  0  0  0  0  0  0  0  0  0
    2.5544   -1.8841   -5.7705 o   0  0  0  0  0  0  0  0  0  0  0  0
    1.9603   -1.6622   -7.0408 c   0  0  0  0  0  0  0  0  0  0  0  0
    2.4284   -0.5835   -2.4715 c   0  0  0  0  0  0  0  0  0  0  0  0
    0.9678    1.0591    0.9876 h   0  0  0  0  0  0  0  0  0  0  0  0
    0.8758    1.0644   -0.8360 h   0  0  0  0  0  0  0  0  0  0  0  0
    2.7342   -0.5939    0.9473 h   0  0  0  0  0  0  0  0  0  0  0  0
    4.3357   -2.0067   -0.0957 h   0  0  0  0  0  0  0  0  0  0  0  0
    4.7654   -2.2384   -5.4055 h   0  0  0  0  0  0  0  0  0  0  0  0
    6.1134   -3.8442   -3.1842 h   0  0  0  0  0  0  0  0  0  0  0  0
    6.5135   -3.8940   -4.9812 h   0  0  0  0  0  0  0  0  0  0  0  0
    2.2238   -2.5207   -7.6534 h   0  0  0  0  0  0  0  0  0  0  0  0
    2.3415   -0.7393   -7.4825 h   0  0  0  0  0  0  0  0  0  0  0  0
    0.8757   -1.5808   -6.9426 h   0  0  0  0  0  0  0  0  0  0  0  0
    1.5896    0.0702   -2.6587 h   0  0  0  0  0  0  0  0  0  0  0  0
  1  2  2  0  0  0  0
  2  3  1  0  0  0  0
  3  4  4  0  0  0  0
  4  5  4  0  0  0  0
  5  6  4  0  0  0  0
  6  7  1  0  0  0  0
  7  8  2  0  0  0  0
  6  9  4  0  0  0  0
  9 10  1  0  0  0  0
 10 11  2  0  0  0  0
 10 12  1  0  0  0  0
 12 13  1  0  0  0  0
  3 14  4  0  0  0  0
  9 14  4  0  0  0  0
  1 15  1  0  0  0  0
  1 16  1  0  0  0  0
  2 17  1  0  0  0  0
  4 18  1  0  0  0  0
  7 19  1  0  0  0  0
  8 20  1  0  0  0  0
  8 21  1  0  0  0  0
 13 22  1  0  0  0  0
 13 23  1  0  0  0  0
 13 24  1  0  0  0  0
 14 25  1  0  0  0  0
M  END
