
  xtb     02012214103D
 xtb: 6.4.1 (23d549d)
 19 19  0     0  0            999 V2000
    1.9287    2.4774   -0.0174 c   0  0  0  0  0  0  0  0  0  0  0  0
    1.1566    1.1938   -0.0084 c   0  0  0  0  0  0  0  0  0  0  0  0
    1.8035   -0.0361   -0.0170 c   0  0  0  0  0  0  0  0  0  0  0  0
    1.0993   -1.2341   -0.0102 c   0  0  0  0  0  0  0  0  0  0  0  0
    1.8098   -2.5527   -0.0215 c   0  0  0  0  0  0  0  0  0  0  0  0
   -0.2870   -1.1963    0.0054 c   0  0  0  0  0  0  0  0  0  0  0  0
   -0.9500    0.0289    0.0135 c   0  0  0  0  0  0  0  0  0  0  0  0
   -2.3633    0.0614    0.0257 c   0  0  0  0  0  0  0  0  0  0  0  0
   -3.5097    0.0855    0.0351 n   0  0  0  0  0  0  0  0  0  0  0  0
   -0.2300    1.2215    0.0071 c   0  0  0  0  0  0  0  0  0  0  0  0
    2.9993    2.2903   -0.0271 h   0  0  0  0  0  0  0  0  0  0  0  0
    1.6862    3.0707    0.8633 h   0  0  0  0  0  0  0  0  0  0  0  0
    1.6698    3.0673   -0.8957 h   0  0  0  0  0  0  0  0  0  0  0  0
    2.8842   -0.0616   -0.0296 h   0  0  0  0  0  0  0  0  0  0  0  0
    2.8881   -2.4166   -0.0261 h   0  0  0  0  0  0  0  0  0  0  0  0
    1.5270   -3.1259   -0.9036 h   0  0  0  0  0  0  0  0  0  0  0  0
    1.5356   -3.1376    0.8554 h   0  0  0  0  0  0  0  0  0  0  0  0
   -0.8572   -2.1140    0.0108 h   0  0  0  0  0  0  0  0  0  0  0  0
   -0.7562    2.1650    0.0139 h   0  0  0  0  0  0  0  0  0  0  0  0
  1  2  1  0  0  0  0
  2  3  4  0  0  0  0
  3  4  4  0  0  0  0
  4  5  1  0  0  0  0
  4  6  4  0  0  0  0
  6  7  4  0  0  0  0
  7  8  1  0  0  0  0
  8  9  3  0  0  0  0
  2 10  4  0  0  0  0
  7 10  4  0  0  0  0
  1 11  1  0  0  0  0
  1 12  1  0  0  0  0
  1 13  1  0  0  0  0
  3 14  1  0  0  0  0
  5 15  1  0  0  0  0
  5 16  1  0  0  0  0
  5 17  1  0  0  0  0
  6 18  1  0  0  0  0
 10 19  1  0  0  0  0
M  END
