
 OpenBabel02032210573D

 22 22  0  0  0  0  0  0  0  0999 V2000
    1.0173   -0.2335   -0.2429 C   0  0  0  0  0  0  0  0  0  0  0  0
    2.2137    0.3272   -0.0193 C   0  0  0  0  0  0  0  0  0  0  0  0
    2.9867    0.2232    1.2514 C   0  0  0  0  0  0  0  0  0  0  0  0
    4.2058    0.8984    1.3351 C   0  0  0  0  0  0  0  0  0  0  0  0
    4.9669    0.8526    2.4982 C   0  0  0  0  0  0  0  0  0  0  0  0
    4.5435    0.1302    3.6279 C   0  0  0  0  0  0  0  0  0  0  0  0
    5.4362    0.2699    4.8216 C   0  0  0  0  0  0  0  0  0  0  0  0
    5.0525    0.1992    6.1025 C   0  0  0  0  0  0  0  0  0  0  0  0
    3.3177   -0.6130    3.5474 C   0  0  0  0  0  0  0  0  0  0  0  0
    2.8493   -1.4929    4.5803 N   0  3  0  0  0  0  0  0  0  0  0  0
    3.6158   -1.9811    5.3521 O   0  0  0  0  0  0  0  0  0  0  0  0
    1.6369   -2.0028    4.5091 O   0  5  0  0  0  0  0  0  0  0  0  0
    2.5567   -0.5304    2.3582 C   0  0  0  0  0  0  0  0  0  0  0  0
    0.5356   -0.0938   -1.2054 H   0  0  0  0  0  0  0  0  0  0  0  0
    0.4917   -0.8240    0.4949 H   0  0  0  0  0  0  0  0  0  0  0  0
    2.6451    0.9062   -0.8318 H   0  0  0  0  0  0  0  0  0  0  0  0
    4.5690    1.4815    0.4971 H   0  0  0  0  0  0  0  0  0  0  0  0
    5.8913    1.4184    2.5222 H   0  0  0  0  0  0  0  0  0  0  0  0
    6.4748    0.5412    4.6497 H   0  0  0  0  0  0  0  0  0  0  0  0
    4.0261    0.0338    6.4014 H   0  0  0  0  0  0  0  0  0  0  0  0
    5.7827    0.3608    6.8891 H   0  0  0  0  0  0  0  0  0  0  0  0
    1.6355   -1.0860    2.2948 H   0  0  0  0  0  0  0  0  0  0  0  0
  1  2  2  0  0  0  0
  1 14  1  0  0  0  0
  1 15  1  0  0  0  0
  2  3  1  0  0  0  0
  2 16  1  0  0  0  0
  3  4  1  0  0  0  0
  3 13  2  0  0  0  0
  4  5  2  0  0  0  0
  4 17  1  0  0  0  0
  5  6  1  0  0  0  0
  5 18  1  0  0  0  0
  6  7  1  0  0  0  0
  6  9  2  0  0  0  0
  7  8  2  0  0  0  0
  7 19  1  0  0  0  0
  8 20  1  0  0  0  0
  8 21  1  0  0  0  0
  9 10  1  0  0  0  0
  9 13  1  0  0  0  0
 10 11  2  0  0  0  0
 10 12  1  0  0  0  0
 13 22  1  0  0  0  0
M  CHG  2  10   1  12  -1
M  END
