26

C          1.53140        0.04039       -0.76663
C          2.24850        0.15930        0.35910
C          3.06950       -0.92210        0.97550
C          4.20730       -0.54910        1.69710
C          5.01650       -1.50740        2.29800
C          4.71980       -2.87540        2.19060
C          5.65390       -3.85900        2.87300
C          7.08940       -3.79292        2.39441
O          7.30378       -3.44744        1.24369
O          8.14111       -4.13046        3.17610
C          3.56180       -3.28610        1.46820
C          3.20750       -4.74160        1.36390
C          3.61413       -5.57639        0.39578
C          2.75270       -2.29080        0.86830
H          0.96628        0.89294       -1.12974
H          1.47979       -0.87197       -1.34487
H          2.22289        1.12484        0.85778
H          4.47500        0.49610        1.79920
H          5.88900       -1.17490        2.84660
H          5.24907       -4.88407        2.73161
H          5.68274       -3.67468        3.96883
H          8.05116       -4.46167        4.07894
H          2.56405       -5.18253        2.11542
H          4.25160       -5.28132       -0.42534
H          3.29113       -6.61271        0.41771
H          1.87800       -2.57670        0.31840
26

C          0.92512        0.10575        0.15555
C          2.24850        0.15930        0.35910
C          3.06950       -0.92210        0.97550
C          4.20730       -0.54910        1.69710
C          5.01650       -1.50740        2.29800
C          4.71980       -2.87540        2.19060
C          5.65390       -3.85900        2.87300
C          6.33819       -3.31589        4.11028
O          5.76007       -2.46716        4.76974
O          7.57428       -3.70678        4.49804
C          3.56180       -3.28610        1.46820
C          3.20750       -4.74160        1.36390
C          2.56806       -5.31739        0.33479
C          2.75270       -2.29080        0.86830
H          0.42275        0.95211       -0.30198
H          0.31607       -0.74574        0.42659
H          2.75657        1.06865        0.04837
H          4.47500        0.49610        1.79920
H          5.88900       -1.17490        2.84660
H          6.41078       -4.19631        2.13272
H          5.09787       -4.76512        3.19768
H          8.11612       -4.33434        4.00256
H          3.47072       -5.40761        2.17653
H          2.23544       -4.78211       -0.54301
H          2.35868       -6.38219        0.36826
H          1.87800       -2.57670        0.31840
26

C          2.71745        1.34075       -0.06503
C          2.24850        0.15930        0.35910
C          3.06950       -0.92210        0.97550
C          4.20730       -0.54910        1.69710
C          5.01650       -1.50740        2.29800
C          4.71980       -2.87540        2.19060
C          5.65390       -3.85900        2.87300
C          5.27028       -5.31316        2.69325
O          5.02823       -5.97826        3.68750
O          5.21539       -5.91461        1.48233
C          3.56180       -3.28610        1.46820
C          3.20750       -4.74160        1.36390
C          2.42179       -5.41661        2.21625
C          2.75270       -2.29080        0.86830
H          2.03126        2.05969       -0.50129
H          3.75864        1.62533        0.00108
H          1.18272       -0.01759        0.23895
H          4.47500        0.49610        1.79920
H          5.88900       -1.17490        2.84660
H          5.70232       -3.60569        3.95381
H          6.68659       -3.75832        2.47416
H          5.44203       -5.47112        0.65477
H          3.61157       -5.32503        0.54564
H          1.95332       -4.97329        3.08326
H          2.23668       -6.47266        2.04526
H          1.87800       -2.57670        0.31840
26

C          1.53140        0.04039       -0.76663
C          2.24850        0.15930        0.35910
C          3.06950       -0.92210        0.97550
C          4.20730       -0.54910        1.69710
C          5.01650       -1.50740        2.29800
C          4.71980       -2.87540        2.19060
C          5.65390       -3.85900        2.87300
C          4.99113       -4.72342        3.92542
O          4.03472       -4.26995        4.53297
O          5.43229       -5.96251        4.24337
C          3.56180       -3.28610        1.46820
C          3.20750       -4.74160        1.36390
C          2.42179       -5.41661        2.21625
C          2.75270       -2.29080        0.86830
H          0.96628        0.89294       -1.12974
H          1.47979       -0.87197       -1.34487
H          2.22289        1.12484        0.85778
H          4.47500        0.49610        1.79920
H          5.88900       -1.17490        2.84660
H          6.49786       -3.29044        3.31924
H          6.09612       -4.55775        2.13014
H          6.21191       -6.37056        3.84513
H          3.61157       -5.32503        0.54564
H          1.95332       -4.97329        3.08326
H          2.23668       -6.47266        2.04526
H          1.87800       -2.57670        0.31840
26

C          2.71745        1.34075       -0.06503
C          2.24850        0.15930        0.35910
C          3.06950       -0.92210        0.97550
C          4.20730       -0.54910        1.69710
C          5.01650       -1.50740        2.29800
C          4.71980       -2.87540        2.19060
C          5.65390       -3.85900        2.87300
C          6.33819       -3.31589        4.11028
O          7.44762       -3.73781        4.39418
O          5.76069       -2.40820        4.93105
C          3.56180       -3.28610        1.46820
C          3.20750       -4.74160        1.36390
C          3.49042       -5.68120        2.27855
C          2.75270       -2.29080        0.86830
H          2.03126        2.05969       -0.50129
H          3.75864        1.62533        0.00108
H          1.18272       -0.01759        0.23895
H          4.47500        0.49610        1.79920
H          5.88900       -1.17490        2.84660
H          6.41078       -4.19631        2.13272
H          5.09787       -4.76512        3.19768
H          4.86692       -2.06498        4.80342
H          2.68535       -5.09509        0.48321
H          4.01297       -5.48327        3.20346
H          3.18924       -6.70816        2.09578
H          1.87800       -2.57670        0.31840
26

C          1.53140        0.04039       -0.76663
C          2.24850        0.15930        0.35910
C          3.06950       -0.92210        0.97550
C          4.20730       -0.54910        1.69710
C          5.01650       -1.50740        2.29800
C          4.71980       -2.87540        2.19060
C          5.65390       -3.85900        2.87300
C          7.09048       -3.38984        2.97391
O          7.69252       -3.13328        1.94377
O          7.74467       -3.27353        4.15272
C          3.56180       -3.28610        1.46820
C          3.20750       -4.74160        1.36390
C          2.42179       -5.41661        2.21625
C          2.75270       -2.29080        0.86830
H          0.96628        0.89294       -1.12974
H          1.47979       -0.87197       -1.34487
H          2.22289        1.12484        0.85778
H          4.47500        0.49610        1.79920
H          5.88900       -1.17490        2.84660
H          5.60354       -4.82665        2.32915
H          5.31833       -4.05900        3.91370
H          7.35480       -3.50598        5.00529
H          3.61157       -5.32503        0.54564
H          1.95332       -4.97329        3.08326
H          2.23668       -6.47266        2.04526
H          1.87800       -2.57670        0.31840
26

C          1.21825        0.78064        0.94914
C          2.24850        0.15930        0.35910
C          3.06950       -0.92210        0.97550
C          4.20730       -0.54910        1.69710
C          5.01650       -1.50740        2.29800
C          4.71980       -2.87540        2.19060
C          5.65390       -3.85900        2.87300
C          6.30822       -4.85288        1.93591
O          7.02242       -4.42710        1.04255
O          6.11027       -6.18845        2.02615
C          3.56180       -3.28610        1.46820
C          3.20750       -4.74160        1.36390
C          2.42179       -5.41661        2.21625
C          2.75270       -2.29080        0.86830
H          0.68637        1.55791        0.40971
H          0.87984        0.55071        1.95016
H          2.50046        0.47632       -0.64967
H          4.47500        0.49610        1.79920
H          5.88900       -1.17490        2.84660
H          5.08458       -4.39401        3.66313
H          6.48210       -3.32149        3.38370
H          5.52047       -6.59871        2.67169
H          3.61157       -5.32503        0.54564
H          1.95332       -4.97329        3.08326
H          2.23668       -6.47266        2.04526
H          1.87800       -2.57670        0.31840
26

C          1.53140        0.04039       -0.76663
C          2.24850        0.15930        0.35910
C          3.06950       -0.92210        0.97550
C          4.20730       -0.54910        1.69710
C          5.01650       -1.50740        2.29800
C          4.71980       -2.87540        2.19060
C          5.65390       -3.85900        2.87300
C          6.30822       -4.85288        1.93591
O          7.02242       -4.42710        1.04255
O          6.11027       -6.18845        2.02615
C          3.56180       -3.28610        1.46820
C          3.20750       -4.74160        1.36390
C          2.42179       -5.41661        2.21625
C          2.75270       -2.29080        0.86830
H          0.96628        0.89294       -1.12974
H          1.47979       -0.87197       -1.34487
H          2.22289        1.12484        0.85778
H          4.47500        0.49610        1.79920
H          5.88900       -1.17490        2.84660
H          5.08458       -4.39401        3.66313
H          6.48210       -3.32149        3.38370
H          5.52047       -6.59871        2.67169
H          3.61157       -5.32503        0.54564
H          1.95332       -4.97329        3.08326
H          2.23668       -6.47266        2.04526
H          1.87800       -2.57670        0.31840
26

C          1.12655       -0.02893       -0.34902
C          2.24850        0.15930        0.35910
C          3.06950       -0.92210        0.97550
C          4.20730       -0.54910        1.69710
C          5.01650       -1.50740        2.29800
C          4.71980       -2.87540        2.19060
C          5.65390       -3.85900        2.87300
C          6.79411       -4.34518        2.00259
O          7.93828       -4.12971        2.36856
O          6.59976       -4.97889        0.82288
C          3.56180       -3.28610        1.46820
C          3.20750       -4.74160        1.36390
C          3.90010       -5.75426        1.90641
C          2.75270       -2.29080        0.86830
H          0.60320        0.83101       -0.75478
H          0.70253       -1.00473       -0.54252
H          2.57895        1.18637        0.49148
H          4.47500        0.49610        1.79920
H          5.88900       -1.17490        2.84660
H          5.05317       -4.72076        3.23515
H          6.12203       -3.39629        3.76878
H          5.72761       -5.14073        0.44070
H          2.32731       -5.03084        0.80280
H          4.80262       -5.62409        2.48624
H          3.55266       -6.77272        1.76229
H          1.87800       -2.57670        0.31840
26

C          2.71745        1.34075       -0.06503
C          2.24850        0.15930        0.35910
C          3.06950       -0.92210        0.97550
C          4.20730       -0.54910        1.69710
C          5.01650       -1.50740        2.29800
C          4.71980       -2.87540        2.19060
C          5.65390       -3.85900        2.87300
C          5.75581       -3.68584        4.37423
O          5.10311       -2.80078        4.90350
O          6.56220       -4.44779        5.14898
C          3.56180       -3.28610        1.46820
C          3.20750       -4.74160        1.36390
C          2.42179       -5.41661        2.21625
C          2.75270       -2.29080        0.86830
H          2.03126        2.05969       -0.50129
H          3.75864        1.62533        0.00108
H          1.18272       -0.01759        0.23895
H          4.47500        0.49610        1.79920
H          5.88900       -1.17490        2.84660
H          6.65887       -3.77016        2.40738
H          5.31363       -4.90348        2.70291
H          7.14692       -5.13273        4.79988
H          3.61157       -5.32503        0.54564
H          1.95332       -4.97329        3.08326
H          2.23668       -6.47266        2.04526
H          1.87800       -2.57670        0.31840
