
  xtb     02012213523D
 xtb: 6.4.1 (23d549d)
 21 21  0     0  0            999 V2000
    2.8903    0.0378    0.0108 c   0  0  0  0  0  0  0  0  0  0  0  0
    1.3943    0.0071    0.0076 c   0  0  0  0  0  0  0  0  0  0  0  0
    0.6878   -1.1888    0.0215 c   0  0  0  0  0  0  0  0  0  0  0  0
   -0.6970   -1.2069    0.0173 c   0  0  0  0  0  0  0  0  0  0  0  0
   -1.4256   -0.0232    0.0010 c   0  0  0  0  0  0  0  0  0  0  0  0
   -2.9167    0.0095   -0.0035 c   0  0  0  0  0  0  0  0  0  0  0  0
   -0.7040    1.1623   -0.0101 c   0  0  0  0  0  0  0  0  0  0  0  0
   -1.6705    2.6509   -0.0277 s   0  0  0  0  0  0  0  0  0  0  0  0
   -2.3086    2.8592   -1.2803 o   0  0  0  0  0  0  0  0  0  0  0  0
   -2.3978    2.8290    1.1805 o   0  0  0  0  0  0  0  0  0  0  0  0
   -0.4503    3.7625    0.0294 f   0  0  0  0  0  0  0  0  0  0  0  0
    0.6711    1.1979   -0.0090 c   0  0  0  0  0  0  0  0  0  0  0  0
    3.3011   -0.9678    0.0287 h   0  0  0  0  0  0  0  0  0  0  0  0
    3.2547    0.5800    0.8817 h   0  0  0  0  0  0  0  0  0  0  0  0
    3.2594    0.5503   -0.8760 h   0  0  0  0  0  0  0  0  0  0  0  0
    1.2288   -2.1238    0.0352 h   0  0  0  0  0  0  0  0  0  0  0  0
   -1.2198   -2.1515    0.0267 h   0  0  0  0  0  0  0  0  0  0  0  0
   -3.3284   -0.9957   -0.0542 h   0  0  0  0  0  0  0  0  0  0  0  0
   -3.2745    0.5895   -0.8528 h   0  0  0  0  0  0  0  0  0  0  0  0
   -3.2805    0.5001    0.8983 h   0  0  0  0  0  0  0  0  0  0  0  0
    1.1860    2.1446   -0.0203 h   0  0  0  0  0  0  0  0  0  0  0  0
  1  2  1  0  0  0  0
  2  3  4  0  0  0  0
  3  4  4  0  0  0  0
  4  5  4  0  0  0  0
  5  6  1  0  0  0  0
  5  7  4  0  0  0  0
  7  8  1  0  0  0  0
  8  9  2  0  0  0  0
  8 10  2  0  0  0  0
  8 11  1  0  0  0  0
  2 12  4  0  0  0  0
  7 12  4  0  0  0  0
  1 13  1  0  0  0  0
  1 14  1  0  0  0  0
  1 15  1  0  0  0  0
  3 16  1  0  0  0  0
  4 17  1  0  0  0  0
  6 18  1  0  0  0  0
  6 19  1  0  0  0  0
  6 20  1  0  0  0  0
 12 21  1  0  0  0  0
M  END
