
  xtb     02032211253D
 xtb: 6.4.1 (23d549d)
 24 25  0     0  0            999 V2000
    1.7509   -1.1942   -0.4268 c   0  0  0  0  0  0  0  0  0  0  0  0
    1.9952    0.0968   -0.2419 c   0  0  0  0  0  0  0  0  0  0  0  0
    2.9757    0.8937   -0.9685 c   0  0  0  0  0  0  0  0  0  0  0  0
    2.6953    2.2270   -1.2410 c   0  0  0  0  0  0  0  0  0  0  0  0
    3.5535    3.0325   -1.9765 c   0  0  0  0  0  0  0  0  0  0  0  0
    4.7788    2.5744   -2.4486 c   0  0  0  0  0  0  0  0  0  0  0  0
    5.6549    3.4810   -3.1790 c   0  0  0  0  0  0  0  0  0  0  0  0
    6.9828    3.4625   -3.1941 c   0  0  0  0  0  0  0  0  0  0  0  0
    5.0803    1.2356   -2.1662 c   0  0  0  0  0  0  0  0  0  0  0  0
    6.1732    0.4938   -2.5070 n   0  0  0  0  0  0  0  0  0  0  0  0
    6.0312   -0.7702   -2.0104 c   0  0  0  0  0  0  0  0  0  0  0  0
    4.8517   -0.8722   -1.3417 c   0  0  0  0  0  0  0  0  0  0  0  0
    4.2025    0.3915   -1.4388 c   0  0  0  0  0  0  0  0  0  0  0  0
    0.9898   -1.7089    0.1351 h   0  0  0  0  0  0  0  0  0  0  0  0
    2.2776   -1.7765   -1.1627 h   0  0  0  0  0  0  0  0  0  0  0  0
    1.3932    0.6536    0.4679 h   0  0  0  0  0  0  0  0  0  0  0  0
    1.7620    2.6451   -0.8907 h   0  0  0  0  0  0  0  0  0  0  0  0
    3.2732    4.0582   -2.1704 h   0  0  0  0  0  0  0  0  0  0  0  0
    5.1377    4.2642   -3.7223 h   0  0  0  0  0  0  0  0  0  0  0  0
    7.5627    2.7608   -2.6180 h   0  0  0  0  0  0  0  0  0  0  0  0
    7.5465    4.1894   -3.7541 h   0  0  0  0  0  0  0  0  0  0  0  0
    6.9247    0.8099   -3.0949 h   0  0  0  0  0  0  0  0  0  0  0  0
    6.7941   -1.5090   -2.1672 h   0  0  0  0  0  0  0  0  0  0  0  0
    4.4963   -1.7384   -0.8226 h   0  0  0  0  0  0  0  0  0  0  0  0
  1  2  2  0  0  0  0
  2  3  1  0  0  0  0
  3  4  4  0  0  0  0
  4  5  4  0  0  0  0
  5  6  4  0  0  0  0
  6  7  1  0  0  0  0
  7  8  2  0  0  0  0
  6  9  4  0  0  0  0
  9 10  1  0  0  0  0
 10 11  4  0  0  0  0
 11 12  2  0  0  0  0
  3 13  4  0  0  0  0
  9 13  4  0  0  0  0
 12 13  4  0  0  0  0
  1 14  1  0  0  0  0
  1 15  1  0  0  0  0
  2 16  1  0  0  0  0
  4 17  1  0  0  0  0
  5 18  1  0  0  0  0
  7 19  1  0  0  0  0
  8 20  1  0  0  0  0
  8 21  1  0  0  0  0
 10 22  1  0  0  0  0
 11 23  1  0  0  0  0
 12 24  1  0  0  0  0
M  END
