
 OpenBabel02012213493D

 20 20  0  0  0  0  0  0  0  0999 V2000
    2.8976   -0.0014    0.0046 C   0  0  0  0  0  0  0  0  0  0  0  0
    1.3960   -0.0021    0.0024 C   0  0  0  0  0  0  0  0  0  0  0  0
    0.6850   -1.2042    0.0006 C   0  0  0  0  0  0  0  0  0  0  0  0
   -0.7076   -1.1964   -0.0005 C   0  0  0  0  0  0  0  0  0  0  0  0
   -1.4269    0.0123   -0.0004 C   0  0  0  0  0  0  0  0  0  0  0  0
   -2.9333   -0.0696   -0.0015 C   0  0  0  0  0  0  0  0  0  0  0  0
   -0.7138    1.2512    0.0008 C   0  0  0  0  0  0  0  0  0  0  0  0
   -1.3656    2.5318    0.0006 N   0  3  0  0  0  0  0  0  0  0  0  0
   -2.5546    2.6259   -0.0009 O   0  0  0  0  0  0  0  0  0  0  0  0
   -0.6502    3.6373    0.0006 O   0  5  0  0  0  0  0  0  0  0  0  0
    0.6981    1.2118    0.0025 C   0  0  0  0  0  0  0  0  0  0  0  0
    3.3065   -1.0344    0.0009 H   0  0  0  0  0  0  0  0  0  0  0  0
    3.2700    0.5189    0.9121 H   0  0  0  0  0  0  0  0  0  0  0  0
    3.2734    0.5267   -0.8969 H   0  0  0  0  0  0  0  0  0  0  0  0
    1.2073   -2.1529    0.0005 H   0  0  0  0  0  0  0  0  0  0  0  0
   -1.2270   -2.1469   -0.0014 H   0  0  0  0  0  0  0  0  0  0  0  0
   -3.2923   -1.1210   -0.0017 H   0  0  0  0  0  0  0  0  0  0  0  0
   -3.3400    0.4187   -0.9118 H   0  0  0  0  0  0  0  0  0  0  0  0
   -3.3411    0.4186    0.9084 H   0  0  0  0  0  0  0  0  0  0  0  0
    1.2687    2.1324    0.0036 H   0  0  0  0  0  0  0  0  0  0  0  0
  1  2  1  0  0  0  0
  1 12  1  0  0  0  0
  1 13  1  0  0  0  0
  1 14  1  0  0  0  0
  2  3  1  0  0  0  0
  2 11  2  0  0  0  0
  3  4  2  0  0  0  0
  3 15  1  0  0  0  0
  4  5  1  0  0  0  0
  4 16  1  0  0  0  0
  5  6  1  0  0  0  0
  5  7  2  0  0  0  0
  6 17  1  0  0  0  0
  6 18  1  0  0  0  0
  6 19  1  0  0  0  0
  7  8  1  0  0  0  0
  7 11  1  0  0  0  0
  8  9  2  0  0  0  0
  8 10  1  0  0  0  0
 11 20  1  0  0  0  0
M  CHG  2   8   1  10  -1
M  END
