
  xtb     02012213493D
 xtb: 6.4.1 (23d549d)
 20 21  0     0  0            999 V2000
    2.8930    0.0178   -0.0292 c   0  0  0  0  0  0  0  0  0  0  0  0
    1.3970    0.0050   -0.0200 c   0  0  0  0  0  0  0  0  0  0  0  0
    0.6749   -1.1820    0.0461 c   0  0  0  0  0  0  0  0  0  0  0  0
   -0.7070   -1.1750    0.0631 c   0  0  0  0  0  0  0  0  0  0  0  0
   -1.4411    0.0064    0.0292 c   0  0  0  0  0  0  0  0  0  0  0  0
   -2.9320   -0.0476    0.0467 c   0  0  0  0  0  0  0  0  0  0  0  0
   -0.7066    1.1970   -0.0367 c   0  0  0  0  0  0  0  0  0  0  0  0
   -1.3410    2.4876   -0.0808 n   0  0  0  0  0  0  0  0  0  0  0  0
   -2.4768    2.5940    0.3330 o   0  0  0  0  0  0  0  0  0  0  0  0
   -0.6908    3.4124   -0.5259 o   0  0  0  0  0  0  0  0  0  0  0  0
    0.6845    1.1908   -0.0680 c   0  0  0  0  0  0  0  0  0  0  0  0
    3.2907   -0.9882   -0.1308 h   0  0  0  0  0  0  0  0  0  0  0  0
    3.2691    0.4463    0.8992 h   0  0  0  0  0  0  0  0  0  0  0  0
    3.2639    0.6286   -0.8499 h   0  0  0  0  0  0  0  0  0  0  0  0
    1.2011   -2.1247    0.0815 h   0  0  0  0  0  0  0  0  0  0  0  0
   -1.2389   -2.1140    0.1053 h   0  0  0  0  0  0  0  0  0  0  0  0
   -3.2740   -1.0645   -0.1298 h   0  0  0  0  0  0  0  0  0  0  0  0
   -3.3637    0.6109   -0.7044 h   0  0  0  0  0  0  0  0  0  0  0  0
   -3.3084    0.2883    1.0122 h   0  0  0  0  0  0  0  0  0  0  0  0
    1.1996    2.1386   -0.1240 h   0  0  0  0  0  0  0  0  0  0  0  0
  1  2  1  0  0  0  0
  2  3  4  0  0  0  0
  3  4  4  0  0  0  0
  4  5  4  0  0  0  0
  5  6  1  0  0  0  0
  5  7  4  0  0  0  0
  7  8  1  0  0  0  0
  8  9  4  0  0  0  0
  8 10  4  0  0  0  0
  9 10  1  0  0  0  0
  2 11  4  0  0  0  0
  7 11  4  0  0  0  0
  1 12  1  0  0  0  0
  1 13  1  0  0  0  0
  1 14  1  0  0  0  0
  3 15  1  0  0  0  0
  4 16  1  0  0  0  0
  6 17  1  0  0  0  0
  6 18  1  0  0  0  0
  6 19  1  0  0  0  0
 11 20  1  0  0  0  0
M  END
