
  xtb     02032211353D
 xtb: 6.4.1 (23d549d)
 53 53  0     0  0            999 V2000
    4.6858   -0.2653   -0.5996 C   0  0  0  0  0  0  0  0  0  0  0  0
    3.7366    0.1029    0.2563 C   0  0  0  0  0  0  0  0  0  0  0  0
    2.4469   -0.5264    0.3732 C   0  0  0  0  0  0  0  0  0  0  0  0
    2.1874   -2.1040   -0.3059 S   0  0  0  0  0  0  0  0  0  0  0  0
    0.6052   -2.1970    0.4068 C   0  0  0  0  0  0  0  0  0  0  0  0
   -0.1262   -3.4327    0.1939 C   0  0  0  0  0  0  0  0  0  0  0  0
   -0.7808   -4.1301    1.1134 C   0  0  0  0  0  0  0  0  0  0  0  0
    0.2833   -1.0428    1.0794 C   0  0  0  0  0  0  0  0  0  0  0  0
   -1.0440   -0.8355    1.7485 C   0  0  0  0  0  0  0  0  0  0  0  0
   -2.0610   -0.1089    0.8588 C   0  0  0  0  0  0  0  0  0  0  0  0
   -2.3548   -0.8681   -0.4314 C   0  0  0  0  0  0  0  0  0  0  0  0
   -3.4128   -0.1595   -1.2737 C   0  0  0  0  0  0  0  0  0  0  0  0
   -3.6544   -0.8311   -2.6256 C   0  0  0  0  0  0  0  0  0  0  0  0
   -4.2856   -2.2132   -2.5044 C   0  0  0  0  0  0  0  0  0  0  0  0
    1.3290   -0.0776    1.0417 C   0  0  0  0  0  0  0  0  0  0  0  0
    1.2700    1.2872    1.6657 C   0  0  0  0  0  0  0  0  0  0  0  0
    1.4812    2.4328    0.6624 C   0  0  0  0  0  0  0  0  0  0  0  0
    0.3161    2.6279   -0.3090 C   0  0  0  0  0  0  0  0  0  0  0  0
   -0.8524    3.4155    0.2901 C   0  0  0  0  0  0  0  0  0  0  0  0
   -0.6031    4.9232    0.3768 C   0  0  0  0  0  0  0  0  0  0  0  0
   -0.6521    5.6156   -0.9801 C   0  0  0  0  0  0  0  0  0  0  0  0
    5.6445    0.2218   -0.6253 H   0  0  0  0  0  0  0  0  0  0  0  0
    4.5287   -1.0665   -1.3028 H   0  0  0  0  0  0  0  0  0  0  0  0
    3.9236    0.9107    0.9520 H   0  0  0  0  0  0  0  0  0  0  0  0
   -0.0517   -3.8261   -0.8137 H   0  0  0  0  0  0  0  0  0  0  0  0
   -0.8311   -3.8270    2.1453 H   0  0  0  0  0  0  0  0  0  0  0  0
   -1.2778   -5.0517    0.8636 H   0  0  0  0  0  0  0  0  0  0  0  0
   -0.9014   -0.2661    2.6698 H   0  0  0  0  0  0  0  0  0  0  0  0
   -1.4634   -1.8023    2.0193 H   0  0  0  0  0  0  0  0  0  0  0  0
   -1.6941    0.8862    0.6140 H   0  0  0  0  0  0  0  0  0  0  0  0
   -2.9886    0.0094    1.4249 H   0  0  0  0  0  0  0  0  0  0  0  0
   -2.6901   -1.8760   -0.1820 H   0  0  0  0  0  0  0  0  0  0  0  0
   -1.4362   -0.9593   -1.0153 H   0  0  0  0  0  0  0  0  0  0  0  0
   -3.0900    0.8706   -1.4481 H   0  0  0  0  0  0  0  0  0  0  0  0
   -4.3529   -0.1200   -0.7179 H   0  0  0  0  0  0  0  0  0  0  0  0
   -2.7054   -0.9119   -3.1608 H   0  0  0  0  0  0  0  0  0  0  0  0
   -4.3144   -0.1931   -3.2187 H   0  0  0  0  0  0  0  0  0  0  0  0
   -3.6140   -2.9062   -2.0044 H   0  0  0  0  0  0  0  0  0  0  0  0
   -4.5114   -2.6127   -3.4907 H   0  0  0  0  0  0  0  0  0  0  0  0
   -5.2120   -2.1596   -1.9363 H   0  0  0  0  0  0  0  0  0  0  0  0
    2.0517    1.3543    2.4299 H   0  0  0  0  0  0  0  0  0  0  0  0
    0.3120    1.4220    2.1662 H   0  0  0  0  0  0  0  0  0  0  0  0
    2.3837    2.2361    0.0833 H   0  0  0  0  0  0  0  0  0  0  0  0
    1.6441    3.3555    1.2233 H   0  0  0  0  0  0  0  0  0  0  0  0
   -0.0282    1.6463   -0.6409 H   0  0  0  0  0  0  0  0  0  0  0  0
    0.6781    3.1529   -1.1943 H   0  0  0  0  0  0  0  0  0  0  0  0
   -1.0624    3.0406    1.2946 H   0  0  0  0  0  0  0  0  0  0  0  0
   -1.7468    3.2502   -0.3162 H   0  0  0  0  0  0  0  0  0  0  0  0
    0.3655    5.1118    0.8437 H   0  0  0  0  0  0  0  0  0  0  0  0
   -1.3676    5.3641    1.0213 H   0  0  0  0  0  0  0  0  0  0  0  0
    0.1314    5.2481   -1.6381 H   0  0  0  0  0  0  0  0  0  0  0  0
   -0.5169    6.6884   -0.8615 H   0  0  0  0  0  0  0  0  0  0  0  0
   -1.6125    5.4423   -1.4612 H   0  0  0  0  0  0  0  0  0  0  0  0
  1  2  2  0  0  0  0
  2  3  1  0  0  0  0
  3  4  1  0  0  0  0
  4  5  1  0  0  0  0
  5  6  1  0  0  0  0
  6  7  2  0  0  0  0
  5  8  2  0  0  0  0
  8  9  1  0  0  0  0
  9 10  1  0  0  0  0
 10 11  1  0  0  0  0
 11 12  1  0  0  0  0
 12 13  1  0  0  0  0
 13 14  1  0  0  0  0
  3 15  4  0  0  0  0
  8 15  4  0  0  0  0
 15 16  1  0  0  0  0
 16 17  1  0  0  0  0
 17 18  1  0  0  0  0
 18 19  1  0  0  0  0
 19 20  1  0  0  0  0
 20 21  1  0  0  0  0
  1 22  1  0  0  0  0
  1 23  1  0  0  0  0
  2 24  1  0  0  0  0
  6 25  1  0  0  0  0
  7 26  1  0  0  0  0
  7 27  1  0  0  0  0
  9 28  1  0  0  0  0
  9 29  1  0  0  0  0
 10 30  1  0  0  0  0
 10 31  1  0  0  0  0
 11 32  1  0  0  0  0
 11 33  1  0  0  0  0
 12 34  1  0  0  0  0
 12 35  1  0  0  0  0
 13 36  1  0  0  0  0
 13 37  1  0  0  0  0
 14 38  1  0  0  0  0
 14 39  1  0  0  0  0
 14 40  1  0  0  0  0
 16 41  1  0  0  0  0
 16 42  1  0  0  0  0
 17 43  1  0  0  0  0
 17 44  1  0  0  0  0
 18 45  1  0  0  0  0
 18 46  1  0  0  0  0
 19 47  1  0  0  0  0
 19 48  1  0  0  0  0
 20 49  1  0  0  0  0
 20 50  1  0  0  0  0
 21 51  1  0  0  0  0
 21 52  1  0  0  0  0
 21 53  1  0  0  0  0
M  END
