
  xtb     02032211353D
 xtb: 6.4.1 (23d549d)
 26 26  0     0  0            999 V2000
    3.6488    1.2171    0.2928 C   0  0  0  0  0  0  0  0  0  0  0  0
    2.8501    0.3340   -0.2893 C   0  0  0  0  0  0  0  0  0  0  0  0
    1.3953    0.2960   -0.1183 C   0  0  0  0  0  0  0  0  0  0  0  0
    0.6853    1.4931   -0.0647 C   0  0  0  0  0  0  0  0  0  0  0  0
   -0.6852    1.4932    0.0639 C   0  0  0  0  0  0  0  0  0  0  0  0
   -1.3952    0.2961    0.1180 C   0  0  0  0  0  0  0  0  0  0  0  0
   -2.8500    0.3340    0.2897 C   0  0  0  0  0  0  0  0  0  0  0  0
   -3.6491    1.2169   -0.2920 C   0  0  0  0  0  0  0  0  0  0  0  0
   -0.6965   -0.9156    0.0421 C   0  0  0  0  0  0  0  0  0  0  0  0
   -1.4470   -2.2182    0.0241 C   0  0  0  0  0  0  0  0  0  0  0  0
    0.6965   -0.9156   -0.0423 C   0  0  0  0  0  0  0  0  0  0  0  0
    1.4470   -2.2182   -0.0241 C   0  0  0  0  0  0  0  0  0  0  0  0
    4.7116    1.2234    0.1186 H   0  0  0  0  0  0  0  0  0  0  0  0
    3.2739    1.9569    0.9806 H   0  0  0  0  0  0  0  0  0  0  0  0
    3.2717   -0.4080   -0.9557 H   0  0  0  0  0  0  0  0  0  0  0  0
    1.2210    2.4280   -0.1367 H   0  0  0  0  0  0  0  0  0  0  0  0
   -1.2209    2.4280    0.1354 H   0  0  0  0  0  0  0  0  0  0  0  0
   -3.2711   -0.4078    0.9566 H   0  0  0  0  0  0  0  0  0  0  0  0
   -3.2747    1.9566   -0.9802 H   0  0  0  0  0  0  0  0  0  0  0  0
   -4.7117    1.2232   -0.1171 H   0  0  0  0  0  0  0  0  0  0  0  0
   -2.4735   -2.0681   -0.2978 H   0  0  0  0  0  0  0  0  0  0  0  0
   -1.4589   -2.6705    1.0171 H   0  0  0  0  0  0  0  0  0  0  0  0
   -0.9799   -2.9213   -0.6615 H   0  0  0  0  0  0  0  0  0  0  0  0
    0.9794   -2.9215    0.6608 H   0  0  0  0  0  0  0  0  0  0  0  0
    2.4732   -2.0683    0.2986 H   0  0  0  0  0  0  0  0  0  0  0  0
    1.4597   -2.6701   -1.0173 H   0  0  0  0  0  0  0  0  0  0  0  0
  1  2  2  0  0  0  0
  2  3  1  0  0  0  0
  3  4  4  0  0  0  0
  4  5  4  0  0  0  0
  5  6  4  0  0  0  0
  6  7  1  0  0  0  0
  7  8  2  0  0  0  0
  6  9  4  0  0  0  0
  9 10  1  0  0  0  0
  3 11  4  0  0  0  0
  9 11  4  0  0  0  0
 11 12  1  0  0  0  0
  1 13  1  0  0  0  0
  1 14  1  0  0  0  0
  2 15  1  0  0  0  0
  4 16  1  0  0  0  0
  5 17  1  0  0  0  0
  7 18  1  0  0  0  0
  8 19  1  0  0  0  0
  8 20  1  0  0  0  0
 10 21  1  0  0  0  0
 10 22  1  0  0  0  0
 10 23  1  0  0  0  0
 12 24  1  0  0  0  0
 12 25  1  0  0  0  0
 12 26  1  0  0  0  0
M  END
