
 OpenBabel02032210583D

 23 23  0  0  0  0  0  0  0  0999 V2000
    1.1517    0.2482   -0.4477 C   0  0  0  0  0  0  0  0  0  0  0  0
    2.3556   -0.0201    0.0752 C   0  0  0  0  0  0  0  0  0  0  0  0
    3.0081   -1.3366    0.0545 C   0  0  0  0  0  0  0  0  0  0  0  0
    4.4006   -1.4010    0.0483 C   0  0  0  0  0  0  0  0  0  0  0  0
    5.0522   -2.6380    0.0622 C   0  0  0  0  0  0  0  0  0  0  0  0
    4.3436   -3.8544    0.0969 C   0  0  0  0  0  0  0  0  0  0  0  0
    5.1845   -5.0641    0.1637 C   0  0  0  0  0  0  0  0  0  0  0  0
    4.9590   -6.2531   -0.4143 C   0  0  0  0  0  0  0  0  0  0  0  0
    2.9362   -3.7994    0.1489 C   0  0  0  0  0  0  0  0  0  0  0  0
    2.0303   -4.9975    0.2342 C   0  0  0  0  0  0  0  0  0  0  0  0
    2.2934   -2.5383    0.1108 C   0  0  0  0  0  0  0  0  0  0  0  0
    0.7443    1.2532   -0.3959 H   0  0  0  0  0  0  0  0  0  0  0  0
    0.5502   -0.5021   -0.9494 H   0  0  0  0  0  0  0  0  0  0  0  0
    2.9182    0.7856    0.5417 H   0  0  0  0  0  0  0  0  0  0  0  0
    4.9969   -0.4929    0.0263 H   0  0  0  0  0  0  0  0  0  0  0  0
    6.1409   -2.6405    0.0449 H   0  0  0  0  0  0  0  0  0  0  0  0
    6.1189   -4.9425    0.7122 H   0  0  0  0  0  0  0  0  0  0  0  0
    4.0835   -6.4655   -1.0083 H   0  0  0  0  0  0  0  0  0  0  0  0
    5.6830   -7.0535   -0.2993 H   0  0  0  0  0  0  0  0  0  0  0  0
    2.5361   -5.9010    0.5751 H   0  0  0  0  0  0  0  0  0  0  0  0
    1.5747   -5.1871   -0.7430 H   0  0  0  0  0  0  0  0  0  0  0  0
    1.2306   -4.8110    0.9605 H   0  0  0  0  0  0  0  0  0  0  0  0
    1.2045   -2.5089    0.1551 H   0  0  0  0  0  0  0  0  0  0  0  0
  1  2  2  0  0  0  0
  1 12  1  0  0  0  0
  1 13  1  0  0  0  0
  2  3  1  0  0  0  0
  2 14  1  0  0  0  0
  3  4  1  0  0  0  0
  3 11  2  0  0  0  0
  4  5  2  0  0  0  0
  4 15  1  0  0  0  0
  5  6  1  0  0  0  0
  5 16  1  0  0  0  0
  6  7  1  0  0  0  0
  6  9  2  0  0  0  0
  7  8  2  0  0  0  0
  7 17  1  0  0  0  0
  8 18  1  0  0  0  0
  8 19  1  0  0  0  0
  9 10  1  0  0  0  0
  9 11  1  0  0  0  0
 10 20  1  0  0  0  0
 10 21  1  0  0  0  0
 10 22  1  0  0  0  0
 11 23  1  0  0  0  0
M  END
