
  xtb     02032211353D
 xtb: 6.4.1 (23d549d)
 23 23  0     0  0            999 V2000
   -4.0446    1.1755   -0.4432 C   0  0  0  0  0  0  0  0  0  0  0  0
   -3.5948   -0.0323   -0.1237 C   0  0  0  0  0  0  0  0  0  0  0  0
   -2.2010   -0.4309    0.0218 C   0  0  0  0  0  0  0  0  0  0  0  0
   -1.8953   -1.7671    0.2915 C   0  0  0  0  0  0  0  0  0  0  0  0
   -0.5898   -2.1840    0.4254 C   0  0  0  0  0  0  0  0  0  0  0  0
    0.4803   -1.2988    0.2842 C   0  0  0  0  0  0  0  0  0  0  0  0
    1.8389   -1.8408    0.3860 C   0  0  0  0  0  0  0  0  0  0  0  0
    2.8140   -1.6395   -0.4865 C   0  0  0  0  0  0  0  0  0  0  0  0
    0.1738    0.0477    0.0537 C   0  0  0  0  0  0  0  0  0  0  0  0
    1.2469    1.1003   -0.0201 C   0  0  0  0  0  0  0  0  0  0  0  0
    2.2499    0.9130    0.8515 F   0  0  0  0  0  0  0  0  0  0  0  0
    1.8145    1.1897   -1.2412 F   0  0  0  0  0  0  0  0  0  0  0  0
    0.7702    2.3312    0.2388 F   0  0  0  0  0  0  0  0  0  0  0  0
   -1.1413    0.4673   -0.0796 C   0  0  0  0  0  0  0  0  0  0  0  0
   -5.0992    1.3716   -0.5299 H   0  0  0  0  0  0  0  0  0  0  0  0
   -3.3942    2.0118   -0.6329 H   0  0  0  0  0  0  0  0  0  0  0  0
   -4.3070   -0.8302    0.0468 H   0  0  0  0  0  0  0  0  0  0  0  0
   -2.6973   -2.4838    0.3955 H   0  0  0  0  0  0  0  0  0  0  0  0
   -0.3752   -3.2233    0.6265 H   0  0  0  0  0  0  0  0  0  0  0  0
    1.9914   -2.5130    1.2215 H   0  0  0  0  0  0  0  0  0  0  0  0
    2.6931   -1.0193   -1.3579 H   0  0  0  0  0  0  0  0  0  0  0  0
    3.7771   -2.1038   -0.3635 H   0  0  0  0  0  0  0  0  0  0  0  0
   -1.3400    1.5129   -0.2515 H   0  0  0  0  0  0  0  0  0  0  0  0
  1  2  2  0  0  0  0
  2  3  1  0  0  0  0
  3  4  4  0  0  0  0
  4  5  4  0  0  0  0
  5  6  4  0  0  0  0
  6  7  1  0  0  0  0
  7  8  2  0  0  0  0
  6  9  4  0  0  0  0
  9 10  1  0  0  0  0
 10 11  1  0  0  0  0
 10 12  1  0  0  0  0
 10 13  1  0  0  0  0
  3 14  4  0  0  0  0
  9 14  4  0  0  0  0
  1 15  1  0  0  0  0
  1 16  1  0  0  0  0
  2 17  1  0  0  0  0
  4 18  1  0  0  0  0
  5 19  1  0  0  0  0
  7 20  1  0  0  0  0
  8 21  1  0  0  0  0
  8 22  1  0  0  0  0
 14 23  1  0  0  0  0
M  END
