30

C          1.52941        0.66724       -1.12781
C          2.32710        0.23910       -0.13950
C          3.06390        1.09000        0.85030
C          2.54280        1.49310        2.10130
F          1.30090        1.14270        2.51070
C          3.30170        2.28660        2.97010
F          2.72550        2.67290        4.13650
C          4.60320        2.71220        2.62280
C          5.41900        3.56390        3.55600
C          4.90921        3.96535        4.80993
F          3.68472        3.56359        5.23418
C          5.67397        4.74861        5.67905
F          5.13562        5.09091        6.87877
C          6.97274        5.16648        5.33377
C          7.72137        6.00086        6.32879
C          8.53137        5.55583        7.29970
C          7.48545        4.77300        4.07635
F          8.71801        5.14066        3.65369
C          6.72169        3.98493        3.20783
F          7.25801        3.67895        1.99929
C          5.11670        2.30940        1.37110
F          6.37600        2.63820        0.98700
C          4.36130        1.51300        0.50660
F          4.91510        1.14630       -0.67880
H          1.05457       -0.06289       -1.77583
H          1.31762        1.70349       -1.33284
H          2.43934       -0.83858       -0.06145
H          7.60373        7.07933        6.27413
H          8.74512        4.51610        7.48524
H          9.01183        6.27418        7.95686
30

C          1.52941        0.66724       -1.12781
C          2.32710        0.23910       -0.13950
C          3.06390        1.09000        0.85030
C          2.54280        1.49310        2.10130
F          1.30090        1.14270        2.51070
C          3.30170        2.28660        2.97010
F          2.72550        2.67290        4.13650
C          4.60320        2.71220        2.62280
C          5.41900        3.56390        3.55600
C          5.25576        3.47390        4.95551
F          4.38910        2.58846        5.50839
C          6.02271        4.25977        5.82033
F          5.83174        4.11802        7.15815
C          6.97809        5.16812        5.32760
C          7.75758        5.96698        6.32805
C          8.92622        5.62686        6.88970
C          7.14072        5.26718        3.92669
F          8.02433        6.12400        3.36265
C          6.37616        4.47713        3.06067
F          6.55274        4.65323        1.72665
C          5.11670        2.30940        1.37110
F          6.37600        2.63820        0.98700
C          4.36130        1.51300        0.50660
F          4.91510        1.14630       -0.67880
H          1.05457       -0.06289       -1.77583
H          1.31762        1.70349       -1.33284
H          2.43934       -0.83858       -0.06145
H          7.34545        6.92086        6.64456
H          9.45769        4.71255        6.68302
H          9.38374        6.30202        7.60633
30

C          2.45241        0.27019       -1.47355
C          2.32710        0.23910       -0.13950
C          3.06390        1.09000        0.85030
C          2.54280        1.49310        2.10130
F          1.30090        1.14270        2.51070
C          3.30170        2.28660        2.97010
F          2.72550        2.67290        4.13650
C          4.60320        2.71220        2.62280
C          5.41900        3.56390        3.55600
C          4.90921        3.96535        4.80993
F          3.68472        3.56359        5.23418
C          5.67397        4.74861        5.67905
F          5.13562        5.09091        6.87877
C          6.97274        5.16648        5.33377
C          7.72137        6.00086        6.32879
C          8.53137        5.55583        7.29970
C          7.48545        4.77300        4.07635
F          8.71801        5.14066        3.65369
C          6.72169        3.98493        3.20783
F          7.25801        3.67895        1.99929
C          5.11670        2.30940        1.37110
F          6.37600        2.63820        0.98700
C          4.36130        1.51300        0.50660
F          4.91510        1.14630       -0.67880
H          1.85288       -0.40580       -2.07530
H          3.11660        0.92983       -2.00689
H          1.61293       -0.48226        0.24740
H          7.60373        7.07933        6.27413
H          8.74512        4.51610        7.48524
H          9.01183        6.27418        7.95686
30

C          2.45241        0.27019       -1.47355
C          2.32710        0.23910       -0.13950
C          3.06390        1.09000        0.85030
C          2.54280        1.49310        2.10130
F          1.30090        1.14270        2.51070
C          3.30170        2.28660        2.97010
F          2.72550        2.67290        4.13650
C          4.60320        2.71220        2.62280
C          5.41900        3.56390        3.55600
C          5.25576        3.47390        4.95551
F          4.38910        2.58846        5.50839
C          6.02271        4.25977        5.82033
F          5.83174        4.11802        7.15815
C          6.97809        5.16812        5.32760
C          7.75758        5.96698        6.32805
C          8.92622        5.62686        6.88970
C          7.14072        5.26718        3.92669
F          8.02433        6.12400        3.36265
C          6.37616        4.47713        3.06067
F          6.55274        4.65323        1.72665
C          5.11670        2.30940        1.37110
F          6.37600        2.63820        0.98700
C          4.36130        1.51300        0.50660
F          4.91510        1.14630       -0.67880
H          1.85288       -0.40580       -2.07530
H          3.11660        0.92983       -2.00689
H          1.61293       -0.48226        0.24740
H          7.34545        6.92086        6.64456
H          9.45769        4.71255        6.68302
H          9.38374        6.30202        7.60633
30

C          1.52941        0.66724       -1.12781
C          2.32710        0.23910       -0.13950
C          3.06390        1.09000        0.85030
C          2.54280        1.49310        2.10130
F          1.30090        1.14270        2.51070
C          3.30170        2.28660        2.97010
F          2.72550        2.67290        4.13650
C          4.60320        2.71220        2.62280
C          5.41900        3.56390        3.55600
C          4.90921        3.96535        4.80993
F          3.68472        3.56359        5.23418
C          5.67397        4.74861        5.67905
F          5.13562        5.09091        6.87877
C          6.97274        5.16648        5.33377
C          7.72137        6.00086        6.32879
C          9.04955        6.03730        6.50610
C          7.48545        4.77300        4.07635
F          8.71801        5.14066        3.65369
C          6.72169        3.98493        3.20783
F          7.25801        3.67895        1.99929
C          5.11670        2.30940        1.37110
F          6.37600        2.63820        0.98700
C          4.36130        1.51300        0.50660
F          4.91510        1.14630       -0.67880
H          1.05457       -0.06289       -1.77583
H          1.31762        1.70349       -1.33284
H          2.43934       -0.83858       -0.06145
H          7.14309        6.64554        6.98446
H          9.75567        5.45367        5.93872
H          9.46242        6.68927        7.26977
30

C          1.52941        0.66724       -1.12781
C          2.32710        0.23910       -0.13950
C          3.06390        1.09000        0.85030
C          2.54280        1.49310        2.10130
F          1.30090        1.14270        2.51070
C          3.30170        2.28660        2.97010
F          2.72550        2.67290        4.13650
C          4.60320        2.71220        2.62280
C          5.41900        3.56390        3.55600
C          5.25576        3.47390        4.95551
F          4.38910        2.58846        5.50839
C          6.02271        4.25977        5.82033
F          5.83174        4.11802        7.15815
C          6.97809        5.16812        5.32760
C          7.75758        5.96698        6.32805
C          9.01082        6.42184        6.18900
C          7.14072        5.26718        3.92669
F          8.02433        6.12400        3.36265
C          6.37616        4.47713        3.06067
F          6.55274        4.65323        1.72665
C          5.11670        2.30940        1.37110
F          6.37600        2.63820        0.98700
C          4.36130        1.51300        0.50660
F          4.91510        1.14630       -0.67880
H          1.05457       -0.06289       -1.77583
H          1.31762        1.70349       -1.33284
H          2.43934       -0.83858       -0.06145
H          7.27335        6.20781        7.27009
H          9.62343        6.26138        5.31715
H          9.45923        6.98938        6.99866
30

C          2.45241        0.27019       -1.47355
C          2.32710        0.23910       -0.13950
C          3.06390        1.09000        0.85030
C          2.54280        1.49310        2.10130
F          1.30090        1.14270        2.51070
C          3.30170        2.28660        2.97010
F          2.72550        2.67290        4.13650
C          4.60320        2.71220        2.62280
C          5.41900        3.56390        3.55600
C          4.90921        3.96535        4.80993
F          3.68472        3.56359        5.23418
C          5.67397        4.74861        5.67905
F          5.13562        5.09091        6.87877
C          6.97274        5.16648        5.33377
C          7.72137        6.00086        6.32879
C          9.04955        6.03730        6.50610
C          7.48545        4.77300        4.07635
F          8.71801        5.14066        3.65369
C          6.72169        3.98493        3.20783
F          7.25801        3.67895        1.99929
C          5.11670        2.30940        1.37110
F          6.37600        2.63820        0.98700
C          4.36130        1.51300        0.50660
F          4.91510        1.14630       -0.67880
H          1.85288       -0.40580       -2.07530
H          3.11660        0.92983       -2.00689
H          1.61293       -0.48226        0.24740
H          7.14309        6.64554        6.98446
H          9.75567        5.45367        5.93872
H          9.46242        6.68927        7.26977
30

C          2.45241        0.27019       -1.47355
C          2.32710        0.23910       -0.13950
C          3.06390        1.09000        0.85030
C          2.54280        1.49310        2.10130
F          1.30090        1.14270        2.51070
C          3.30170        2.28660        2.97010
F          2.72550        2.67290        4.13650
C          4.60320        2.71220        2.62280
C          5.41900        3.56390        3.55600
C          5.25576        3.47390        4.95551
F          4.38910        2.58846        5.50839
C          6.02271        4.25977        5.82033
F          5.83174        4.11802        7.15815
C          6.97809        5.16812        5.32760
C          7.75758        5.96698        6.32805
C          9.01082        6.42184        6.18900
C          7.14072        5.26718        3.92669
F          8.02433        6.12400        3.36265
C          6.37616        4.47713        3.06067
F          6.55274        4.65323        1.72665
C          5.11670        2.30940        1.37110
F          6.37600        2.63820        0.98700
C          4.36130        1.51300        0.50660
F          4.91510        1.14630       -0.67880
H          1.85288       -0.40580       -2.07530
H          3.11660        0.92983       -2.00689
H          1.61293       -0.48226        0.24740
H          7.27335        6.20781        7.27009
H          9.62343        6.26138        5.31715
H          9.45923        6.98938        6.99866
30

C          0.99965        0.18045       -0.31498
C          2.32710        0.23910       -0.13950
C          3.06390        1.09000        0.85030
C          2.54280        1.49310        2.10130
F          1.30090        1.14270        2.51070
C          3.30170        2.28660        2.97010
F          2.72550        2.67290        4.13650
C          4.60320        2.71220        2.62280
C          5.41900        3.56390        3.55600
C          4.90921        3.96535        4.80993
F          3.68472        3.56359        5.23418
C          5.67397        4.74861        5.67905
F          5.13562        5.09091        6.87877
C          6.97274        5.16648        5.33377
C          7.72137        6.00086        6.32879
C          7.28320        6.39965        7.53121
C          7.48545        4.77300        4.07635
F          8.71801        5.14066        3.65369
C          6.72169        3.98493        3.20783
F          7.25801        3.67895        1.99929
C          5.11670        2.30940        1.37110
F          6.37600        2.63820        0.98700
C          4.36130        1.51300        0.50660
F          4.91510        1.14630       -0.67880
H          0.59688       -0.48437       -1.07280
H          0.28527        0.75451        0.25144
H          2.91452       -0.40345       -0.78924
H          8.72236        6.32803        6.06252
H          6.31310        6.16144        7.93533
H          7.93205        7.00721        8.15458
30

C          1.09171       -0.26241       -0.00281
C          2.32710        0.23910       -0.13950
C          3.06390        1.09000        0.85030
C          2.54280        1.49310        2.10130
F          1.30090        1.14270        2.51070
C          3.30170        2.28660        2.97010
F          2.72550        2.67290        4.13650
C          4.60320        2.71220        2.62280
C          5.41900        3.56390        3.55600
C          4.90921        3.96535        4.80993
F          3.68472        3.56359        5.23418
C          5.67397        4.74861        5.67905
F          5.13562        5.09091        6.87877
C          6.97274        5.16648        5.33377
C          7.72137        6.00086        6.32879
C          7.59310        5.96490        7.66261
C          7.48545        4.77300        4.07635
F          8.71801        5.14066        3.65369
C          6.72169        3.98493        3.20783
F          7.25801        3.67895        1.99929
C          5.11670        2.30940        1.37110
F          6.37600        2.63820        0.98700
C          4.36130        1.51300        0.50660
F          4.91510        1.14630       -0.67880
H          0.67681       -0.86744       -0.80298
H          0.46484       -0.10865        0.85981
H          2.83255       -0.00700       -1.06904
H          8.44360        6.71650        5.94649
H          6.91668        5.31406        8.19178
H          8.19951        6.63039        8.26933
