
  xtb     02032210433D
 xtb: 6.4.1 (23d549d)
 44 46  0     0  0            999 V2000
    2.3906    0.0319   -0.2474 c   0  0  0  0  0  0  0  0  0  0  0  0
    0.8940    0.0171   -0.1771 c   0  0  0  0  0  0  0  0  0  0  0  0
    0.1466   -0.9209   -0.8768 c   0  0  0  0  0  0  0  0  0  0  0  0
   -1.2337   -0.9220   -0.8194 c   0  0  0  0  0  0  0  0  0  0  0  0
   -1.9057    0.0194   -0.0435 c   0  0  0  0  0  0  0  0  0  0  0  0
   -3.3074    0.0261    0.0201 n   0  0  0  0  0  0  0  0  0  0  0  0
   -4.0143   -1.1677    0.0787 c   0  0  0  0  0  0  0  0  0  0  0  0
   -3.4759   -2.2882    0.7188 c   0  0  0  0  0  0  0  0  0  0  0  0
   -4.1814   -3.4679    0.7723 c   0  0  0  0  0  0  0  0  0  0  0  0
   -5.4514   -3.5844    0.1985 c   0  0  0  0  0  0  0  0  0  0  0  0
   -6.1369   -4.8584    0.2972 c   0  0  0  0  0  0  0  0  0  0  0  0
   -7.3502   -5.1813   -0.1287 c   0  0  0  0  0  0  0  0  0  0  0  0
   -8.2362   -4.4093   -0.7513 f   0  0  0  0  0  0  0  0  0  0  0  0
   -7.8745   -6.3998    0.0236 f   0  0  0  0  0  0  0  0  0  0  0  0
   -5.9856   -2.4618   -0.4407 c   0  0  0  0  0  0  0  0  0  0  0  0
   -5.2818   -1.2803   -0.5010 c   0  0  0  0  0  0  0  0  0  0  0  0
   -3.9835    1.2555    0.0292 c   0  0  0  0  0  0  0  0  0  0  0  0
   -3.5360    2.3134   -0.7582 c   0  0  0  0  0  0  0  0  0  0  0  0
   -4.1953    3.5271   -0.7355 c   0  0  0  0  0  0  0  0  0  0  0  0
   -5.3172    3.7207    0.0598 c   0  0  0  0  0  0  0  0  0  0  0  0
   -6.0481    5.0286    0.0705 c   0  0  0  0  0  0  0  0  0  0  0  0
   -5.7595    2.6595    0.8425 c   0  0  0  0  0  0  0  0  0  0  0  0
   -5.1042    1.4453    0.8364 c   0  0  0  0  0  0  0  0  0  0  0  0
   -1.1618    0.9637    0.6622 c   0  0  0  0  0  0  0  0  0  0  0  0
    0.2160    0.9596    0.5891 c   0  0  0  0  0  0  0  0  0  0  0  0
    2.7650   -0.8507   -0.7597 h   0  0  0  0  0  0  0  0  0  0  0  0
    2.8207    0.0659    0.7523 h   0  0  0  0  0  0  0  0  0  0  0  0
    2.7343    0.9146   -0.7867 h   0  0  0  0  0  0  0  0  0  0  0  0
    0.6497   -1.6592   -1.4847 h   0  0  0  0  0  0  0  0  0  0  0  0
   -1.7998   -1.6523   -1.3790 h   0  0  0  0  0  0  0  0  0  0  0  0
   -2.5024   -2.2189    1.1808 h   0  0  0  0  0  0  0  0  0  0  0  0
   -3.7493   -4.3189    1.2783 h   0  0  0  0  0  0  0  0  0  0  0  0
   -5.5980   -5.6586    0.7851 h   0  0  0  0  0  0  0  0  0  0  0  0
   -6.9559   -2.5123   -0.9066 h   0  0  0  0  0  0  0  0  0  0  0  0
   -5.7072   -0.4286   -1.0106 h   0  0  0  0  0  0  0  0  0  0  0  0
   -2.6685    2.1781   -1.3875 h   0  0  0  0  0  0  0  0  0  0  0  0
   -3.8335    4.3360   -1.3540 h   0  0  0  0  0  0  0  0  0  0  0  0
   -5.4503    5.8126   -0.3873 h   0  0  0  0  0  0  0  0  0  0  0  0
   -6.2949    5.3230    1.0889 h   0  0  0  0  0  0  0  0  0  0  0  0
   -6.9817    4.9413   -0.4859 h   0  0  0  0  0  0  0  0  0  0  0  0
   -6.6261    2.7909    1.4745 h   0  0  0  0  0  0  0  0  0  0  0  0
   -5.4537    0.6359    1.4606 h   0  0  0  0  0  0  0  0  0  0  0  0
   -1.6727    1.6974    1.2682 h   0  0  0  0  0  0  0  0  0  0  0  0
    0.7791    1.6964    1.1438 h   0  0  0  0  0  0  0  0  0  0  0  0
  1  2  1  0  0  0  0
  2  3  4  0  0  0  0
  3  4  4  0  0  0  0
  4  5  4  0  0  0  0
  5  6  1  0  0  0  0
  6  7  1  0  0  0  0
  7  8  4  0  0  0  0
  8  9  4  0  0  0  0
  9 10  4  0  0  0  0
 10 11  1  0  0  0  0
 11 12  2  0  0  0  0
 12 13  1  0  0  0  0
 12 14  1  0  0  0  0
 10 15  4  0  0  0  0
  7 16  4  0  0  0  0
 15 16  4  0  0  0  0
  6 17  1  0  0  0  0
 17 18  4  0  0  0  0
 18 19  4  0  0  0  0
 19 20  4  0  0  0  0
 20 21  1  0  0  0  0
 20 22  4  0  0  0  0
 17 23  4  0  0  0  0
 22 23  4  0  0  0  0
  5 24  4  0  0  0  0
  2 25  4  0  0  0  0
 24 25  4  0  0  0  0
  1 26  1  0  0  0  0
  1 27  1  0  0  0  0
  1 28  1  0  0  0  0
  3 29  1  0  0  0  0
  4 30  1  0  0  0  0
  8 31  1  0  0  0  0
  9 32  1  0  0  0  0
 11 33  1  0  0  0  0
 15 34  1  0  0  0  0
 16 35  1  0  0  0  0
 18 36  1  0  0  0  0
 19 37  1  0  0  0  0
 21 38  1  0  0  0  0
 21 39  1  0  0  0  0
 21 40  1  0  0  0  0
 22 41  1  0  0  0  0
 23 42  1  0  0  0  0
 24 43  1  0  0  0  0
 25 44  1  0  0  0  0
M  END
