
  xtb     02032211363D
 xtb: 6.4.1 (23d549d)
 42 42  0     0  0            999 V2000
    1.6265    4.8435   -3.1319 C   0  0  0  0  0  0  0  0  0  0  0  0
    0.4358    4.8430   -2.5458 C   0  0  0  0  0  0  0  0  0  0  0  0
   -0.1748    3.7417   -1.8088 C   0  0  0  0  0  0  0  0  0  0  0  0
   -1.4701    3.9006   -1.3164 C   0  0  0  0  0  0  0  0  0  0  0  0
   -2.1046    2.8871   -0.6074 C   0  0  0  0  0  0  0  0  0  0  0  0
   -3.4569    3.1171   -0.1091 C   0  0  0  0  0  0  0  0  0  0  0  0
   -4.1177    2.3745    0.7704 C   0  0  0  0  0  0  0  0  0  0  0  0
   -1.4319    1.6834   -0.3927 C   0  0  0  0  0  0  0  0  0  0  0  0
   -0.1411    1.5064   -0.8730 C   0  0  0  0  0  0  0  0  0  0  0  0
    0.6039    0.3756   -0.7364 O   0  0  0  0  0  0  0  0  0  0  0  0
    0.1090   -0.7078    0.0244 C   0  0  0  0  0  0  0  0  0  0  0  0
    0.2036   -0.4415    1.5308 C   0  0  0  0  0  0  0  0  0  0  0  0
   -0.5353   -1.4831    2.3706 C   0  0  0  0  0  0  0  0  0  0  0  0
   -0.0938   -2.9263    2.1261 C   0  0  0  0  0  0  0  0  0  0  0  0
    1.3771   -3.1689    2.4573 C   0  0  0  0  0  0  0  0  0  0  0  0
    1.7930   -4.6053    2.1454 C   0  0  0  0  0  0  0  0  0  0  0  0
    1.8687   -4.8597    0.6504 C   0  0  0  0  0  0  0  0  0  0  0  0
    1.7519   -4.0208   -0.1929 O   0  0  0  0  0  0  0  0  0  0  0  0
    2.1007   -6.1437    0.3126 O   0  0  0  0  0  0  0  0  0  0  0  0
    0.4795    2.5384   -1.5760 C   0  0  0  0  0  0  0  0  0  0  0  0
    1.9913    5.7096   -3.6574 H   0  0  0  0  0  0  0  0  0  0  0  0
    2.2825    3.9905   -3.1172 H   0  0  0  0  0  0  0  0  0  0  0  0
   -0.1767    5.7351   -2.6050 H   0  0  0  0  0  0  0  0  0  0  0  0
   -1.9901    4.8332   -1.4853 H   0  0  0  0  0  0  0  0  0  0  0  0
   -3.9344    4.0056   -0.5044 H   0  0  0  0  0  0  0  0  0  0  0  0
   -3.6986    1.4915    1.2222 H   0  0  0  0  0  0  0  0  0  0  0  0
   -5.1155    2.6311    1.0831 H   0  0  0  0  0  0  0  0  0  0  0  0
   -1.9378    0.8931    0.1358 H   0  0  0  0  0  0  0  0  0  0  0  0
    0.7450   -1.5503   -0.2581 H   0  0  0  0  0  0  0  0  0  0  0  0
   -0.9240   -0.9433   -0.2621 H   0  0  0  0  0  0  0  0  0  0  0  0
   -0.2229    0.5425    1.7421 H   0  0  0  0  0  0  0  0  0  0  0  0
    1.2559   -0.3993    1.8136 H   0  0  0  0  0  0  0  0  0  0  0  0
   -1.6052   -1.4142    2.1579 H   0  0  0  0  0  0  0  0  0  0  0  0
   -0.3944   -1.2386    3.4265 H   0  0  0  0  0  0  0  0  0  0  0  0
   -0.2713   -3.1874    1.0833 H   0  0  0  0  0  0  0  0  0  0  0  0
   -0.7114   -3.5836    2.7450 H   0  0  0  0  0  0  0  0  0  0  0  0
    1.5547   -2.9595    3.5141 H   0  0  0  0  0  0  0  0  0  0  0  0
    2.0006   -2.5014    1.8635 H   0  0  0  0  0  0  0  0  0  0  0  0
    1.0869   -5.3127    2.5910 H   0  0  0  0  0  0  0  0  0  0  0  0
    2.7844   -4.8082    2.5628 H   0  0  0  0  0  0  0  0  0  0  0  0
    2.1831   -6.7248    1.0797 H   0  0  0  0  0  0  0  0  0  0  0  0
    1.4804    2.3642   -1.9344 H   0  0  0  0  0  0  0  0  0  0  0  0
  1  2  2  0  0  0  0
  2  3  1  0  0  0  0
  3  4  4  0  0  0  0
  4  5  4  0  0  0  0
  5  6  1  0  0  0  0
  6  7  2  0  0  0  0
  5  8  4  0  0  0  0
  8  9  4  0  0  0  0
  9 10  1  0  0  0  0
 10 11  1  0  0  0  0
 11 12  1  0  0  0  0
 12 13  1  0  0  0  0
 13 14  1  0  0  0  0
 14 15  1  0  0  0  0
 15 16  1  0  0  0  0
 16 17  1  0  0  0  0
 17 18  2  0  0  0  0
 17 19  1  0  0  0  0
  3 20  4  0  0  0  0
  9 20  4  0  0  0  0
  1 21  1  0  0  0  0
  1 22  1  0  0  0  0
  2 23  1  0  0  0  0
  4 24  1  0  0  0  0
  6 25  1  0  0  0  0
  7 26  1  0  0  0  0
  7 27  1  0  0  0  0
  8 28  1  0  0  0  0
 11 29  1  0  0  0  0
 11 30  1  0  0  0  0
 12 31  1  0  0  0  0
 12 32  1  0  0  0  0
 13 33  1  0  0  0  0
 13 34  1  0  0  0  0
 14 35  1  0  0  0  0
 14 36  1  0  0  0  0
 15 37  1  0  0  0  0
 15 38  1  0  0  0  0
 16 39  1  0  0  0  0
 16 40  1  0  0  0  0
 19 41  1  0  0  0  0
 20 42  1  0  0  0  0
M  END
