
  xtb     02032211353D
 xtb: 6.4.1 (23d549d)
 24 24  0     0  0            999 V2000
   -4.3926   -0.0937   -0.9475 C   0  0  0  0  0  0  0  0  0  0  0  0
   -3.7088   -0.5781    0.0776 C   0  0  0  0  0  0  0  0  0  0  0  0
   -2.2458   -0.5689    0.1883 C   0  0  0  0  0  0  0  0  0  0  0  0
   -1.6222   -1.7545    0.5781 C   0  0  0  0  0  0  0  0  0  0  0  0
   -0.2493   -1.8739    0.6122 C   0  0  0  0  0  0  0  0  0  0  0  0
    0.5286   -0.7841    0.2481 C   0  0  0  0  0  0  0  0  0  0  0  0
    1.9207   -1.0046    0.2948 O   0  0  0  0  0  0  0  0  0  0  0  0
    2.7605   -0.0458   -0.0207 C   0  0  0  0  0  0  0  0  0  0  0  0
    2.6810    1.0474    0.7617 F   0  0  0  0  0  0  0  0  0  0  0  0
    4.0032   -0.5046    0.0968 F   0  0  0  0  0  0  0  0  0  0  0  0
    2.6392    0.4109   -1.2820 F   0  0  0  0  0  0  0  0  0  0  0  0
   -0.0574    0.4097   -0.1179 C   0  0  0  0  0  0  0  0  0  0  0  0
   -1.4480    0.5373   -0.1316 C   0  0  0  0  0  0  0  0  0  0  0  0
   -1.9835    1.8713   -0.4260 C   0  0  0  0  0  0  0  0  0  0  0  0
   -2.9379    2.4705    0.2687 C   0  0  0  0  0  0  0  0  0  0  0  0
   -5.4646   -0.1748   -1.0006 H   0  0  0  0  0  0  0  0  0  0  0  0
   -3.9061    0.4007   -1.7711 H   0  0  0  0  0  0  0  0  0  0  0  0
   -4.2249   -1.1036    0.8718 H   0  0  0  0  0  0  0  0  0  0  0  0
   -2.2334   -2.6053    0.8405 H   0  0  0  0  0  0  0  0  0  0  0  0
    0.2335   -2.7909    0.9058 H   0  0  0  0  0  0  0  0  0  0  0  0
    0.5349    1.2731   -0.3790 H   0  0  0  0  0  0  0  0  0  0  0  0
   -1.4780    2.4037   -1.2222 H   0  0  0  0  0  0  0  0  0  0  0  0
   -3.4324    1.9829    1.0916 H   0  0  0  0  0  0  0  0  0  0  0  0
   -3.2577    3.4726    0.0406 H   0  0  0  0  0  0  0  0  0  0  0  0
  1  2  2  0  0  0  0
  2  3  1  0  0  0  0
  3  4  4  0  0  0  0
  4  5  4  0  0  0  0
  5  6  4  0  0  0  0
  6  7  1  0  0  0  0
  7  8  1  0  0  0  0
  8  9  1  0  0  0  0
  8 10  1  0  0  0  0
  8 11  1  0  0  0  0
  6 12  4  0  0  0  0
  3 13  4  0  0  0  0
 12 13  4  0  0  0  0
 13 14  1  0  0  0  0
 14 15  2  0  0  0  0
  1 16  1  0  0  0  0
  1 17  1  0  0  0  0
  2 18  1  0  0  0  0
  4 19  1  0  0  0  0
  5 20  1  0  0  0  0
 12 21  1  0  0  0  0
 14 22  1  0  0  0  0
 15 23  1  0  0  0  0
 15 24  1  0  0  0  0
M  END
