
  xtb     02032210493D
 xtb: 6.4.1 (23d549d)
 24 24  0     0  0            999 V2000
    3.0473    0.8443    0.9715 c   0  0  0  0  0  0  0  0  0  0  0  0
    2.6270    0.1360   -0.0705 c   0  0  0  0  0  0  0  0  0  0  0  0
    3.2923   -1.0152   -0.6626 c   0  0  0  0  0  0  0  0  0  0  0  0
    4.5852   -1.4134   -0.3147 c   0  0  0  0  0  0  0  0  0  0  0  0
    5.1689   -2.5106   -0.9066 c   0  0  0  0  0  0  0  0  0  0  0  0
    4.4932   -3.2664   -1.8725 c   0  0  0  0  0  0  0  0  0  0  0  0
    5.1590   -4.4084   -2.4584 c   0  0  0  0  0  0  0  0  0  0  0  0
    4.6594   -5.2454   -3.3829 c   0  0  0  0  0  0  0  0  0  0  0  0
    5.4062   -6.3566   -3.9046 c   0  0  0  0  0  0  0  0  0  0  0  0
    4.9332   -7.1934   -4.8216 c   0  0  0  0  0  0  0  0  0  0  0  0
    3.7290   -7.1311   -5.3822 f   0  0  0  0  0  0  0  0  0  0  0  0
    5.6048   -8.2267   -5.3221 f   0  0  0  0  0  0  0  0  0  0  0  0
    3.1996   -2.8650   -2.2221 c   0  0  0  0  0  0  0  0  0  0  0  0
    2.6192   -1.7647   -1.6323 c   0  0  0  0  0  0  0  0  0  0  0  0
    2.4822    1.6817    1.3433 h   0  0  0  0  0  0  0  0  0  0  0  0
    3.9576    0.6200    1.5002 h   0  0  0  0  0  0  0  0  0  0  0  0
    1.6901    0.4057   -0.5431 h   0  0  0  0  0  0  0  0  0  0  0  0
    5.1412   -0.8513    0.4197 h   0  0  0  0  0  0  0  0  0  0  0  0
    6.1721   -2.7973   -0.6232 h   0  0  0  0  0  0  0  0  0  0  0  0
    6.1655   -4.5867   -2.0984 h   0  0  0  0  0  0  0  0  0  0  0  0
    3.6629   -5.1165   -3.7781 h   0  0  0  0  0  0  0  0  0  0  0  0
    6.4075   -6.5320   -3.5425 h   0  0  0  0  0  0  0  0  0  0  0  0
    2.6452   -3.4177   -2.9645 h   0  0  0  0  0  0  0  0  0  0  0  0
    1.6184   -1.4740   -1.9200 h   0  0  0  0  0  0  0  0  0  0  0  0
  1  2  2  0  0  0  0
  2  3  1  0  0  0  0
  3  4  4  0  0  0  0
  4  5  4  0  0  0  0
  5  6  4  0  0  0  0
  6  7  1  0  0  0  0
  7  8  2  0  0  0  0
  8  9  1  0  0  0  0
  9 10  2  0  0  0  0
 10 11  1  0  0  0  0
 10 12  1  0  0  0  0
  6 13  4  0  0  0  0
  3 14  4  0  0  0  0
 13 14  4  0  0  0  0
  1 15  1  0  0  0  0
  1 16  1  0  0  0  0
  2 17  1  0  0  0  0
  4 18  1  0  0  0  0
  5 19  1  0  0  0  0
  7 20  1  0  0  0  0
  8 21  1  0  0  0  0
  9 22  1  0  0  0  0
 13 23  1  0  0  0  0
 14 24  1  0  0  0  0
M  END
