
  xtb     02032211353D
 xtb: 6.4.1 (23d549d)
 22 22  0     0  0            999 V2000
   -3.8247   -0.4777    0.2483 C   0  0  0  0  0  0  0  0  0  0  0  0
   -2.9567    0.4998    0.0185 C   0  0  0  0  0  0  0  0  0  0  0  0
   -1.5057    0.3772   -0.0462 C   0  0  0  0  0  0  0  0  0  0  0  0
   -0.8164   -0.8296    0.0612 C   0  0  0  0  0  0  0  0  0  0  0  0
    0.5696   -0.8621    0.0002 C   0  0  0  0  0  0  0  0  0  0  0  0
    1.2726   -2.1821    0.0739 C   0  0  0  0  0  0  0  0  0  0  0  0
    1.2458    0.3553   -0.1681 C   0  0  0  0  0  0  0  0  0  0  0  0
    2.6963    0.5146   -0.2294 C   0  0  0  0  0  0  0  0  0  0  0  0
    3.5903   -0.1248    0.5128 C   0  0  0  0  0  0  0  0  0  0  0  0
    0.4567    1.5033   -0.3042 C   0  0  0  0  0  0  0  0  0  0  0  0
   -0.8533    1.5272   -0.2396 N   0  0  0  0  0  0  0  0  0  0  0  0
   -4.8839   -0.2880    0.2810 H   0  0  0  0  0  0  0  0  0  0  0  0
   -3.5254   -1.4988    0.4152 H   0  0  0  0  0  0  0  0  0  0  0  0
   -3.3036    1.5124   -0.1366 H   0  0  0  0  0  0  0  0  0  0  0  0
   -1.3600   -1.7543    0.1809 H   0  0  0  0  0  0  0  0  0  0  0  0
    0.6368   -2.9679   -0.3296 H   0  0  0  0  0  0  0  0  0  0  0  0
    1.4950   -2.4348    1.1107 H   0  0  0  0  0  0  0  0  0  0  0  0
    2.2076   -2.1582   -0.4807 H   0  0  0  0  0  0  0  0  0  0  0  0
    3.0321    1.2803   -0.9193 H   0  0  0  0  0  0  0  0  0  0  0  0
    3.3136   -0.8511    1.2567 H   0  0  0  0  0  0  0  0  0  0  0  0
    4.6430    0.0845    0.4230 H   0  0  0  0  0  0  0  0  0  0  0  0
    0.9303    2.4653   -0.4621 H   0  0  0  0  0  0  0  0  0  0  0  0
  1  2  2  0  0  0  0
  2  3  1  0  0  0  0
  3  4  4  0  0  0  0
  4  5  4  0  0  0  0
  5  6  1  0  0  0  0
  5  7  4  0  0  0  0
  7  8  1  0  0  0  0
  8  9  2  0  0  0  0
  7 10  4  0  0  0  0
  3 11  4  0  0  0  0
 10 11  4  0  0  0  0
  1 12  1  0  0  0  0
  1 13  1  0  0  0  0
  2 14  1  0  0  0  0
  4 15  1  0  0  0  0
  6 16  1  0  0  0  0
  6 17  1  0  0  0  0
  6 18  1  0  0  0  0
  8 19  1  0  0  0  0
  9 20  1  0  0  0  0
  9 21  1  0  0  0  0
 10 22  1  0  0  0  0
M  END
