
  xtb     02032210543D
 xtb: 6.4.1 (23d549d)
 54 59  0     0  0            999 V2000
    1.6675    1.1304    0.5097 c   0  0  0  0  0  0  0  0  0  0  0  0
    2.5418    0.2303    0.0882 c   0  0  0  0  0  0  0  0  0  0  0  0
    3.0637   -0.8701    0.9127 c   0  0  0  0  0  0  0  0  0  0  0  0
    2.1992   -1.8242    1.4748 c   0  0  0  0  0  0  0  0  0  0  0  0
    0.8014   -1.8200    1.2260 c   0  0  0  0  0  0  0  0  0  0  0  0
   -0.0231   -2.7418    1.7939 c   0  0  0  0  0  0  0  0  0  0  0  0
    0.4959   -3.7296    2.6544 c   0  0  0  0  0  0  0  0  0  0  0  0
    1.8329   -3.7896    2.8963 c   0  0  0  0  0  0  0  0  0  0  0  0
    2.7299   -2.8626    2.3031 c   0  0  0  0  0  0  0  0  0  0  0  0
    4.1116   -2.9516    2.5165 c   0  0  0  0  0  0  0  0  0  0  0  0
    4.6636   -4.0201    3.3811 c   0  0  0  0  0  0  0  0  0  0  0  0
    4.8074   -5.3223    2.8851 c   0  0  0  0  0  0  0  0  0  0  0  0
    4.4224   -5.6508    1.5585 c   0  0  0  0  0  0  0  0  0  0  0  0
    4.5216   -6.9240    1.0910 c   0  0  0  0  0  0  0  0  0  0  0  0
    5.0040   -7.9492    1.9289 c   0  0  0  0  0  0  0  0  0  0  0  0
    5.4065   -7.6696    3.1984 c   0  0  0  0  0  0  0  0  0  0  0  0
    5.3508   -6.3497    3.7189 c   0  0  0  0  0  0  0  0  0  0  0  0
    5.7788   -6.0382    5.0201 c   0  0  0  0  0  0  0  0  0  0  0  0
    6.3770   -7.0659    5.8855 c   0  0  0  0  0  0  0  0  0  0  0  0
    7.4697   -7.7509    5.5866 c   0  0  0  0  0  0  0  0  0  0  0  0
    5.6315   -4.7312    5.5143 c   0  0  0  0  0  0  0  0  0  0  0  0
    6.0738   -4.3691    6.8137 c   0  0  0  0  0  0  0  0  0  0  0  0
    5.9203   -3.1018    7.2863 c   0  0  0  0  0  0  0  0  0  0  0  0
    5.3136   -2.1122    6.4877 c   0  0  0  0  0  0  0  0  0  0  0  0
    4.8945   -2.4113    5.2286 c   0  0  0  0  0  0  0  0  0  0  0  0
    5.0521   -3.7163    4.6931 c   0  0  0  0  0  0  0  0  0  0  0  0
    4.9798   -2.0244    1.9240 c   0  0  0  0  0  0  0  0  0  0  0  0
    6.3853   -2.1058    2.1043 c   0  0  0  0  0  0  0  0  0  0  0  0
    7.2191   -1.1775    1.5624 c   0  0  0  0  0  0  0  0  0  0  0  0
    6.6950   -0.1081    0.8095 c   0  0  0  0  0  0  0  0  0  0  0  0
    5.3538   -0.0055    0.6007 c   0  0  0  0  0  0  0  0  0  0  0  0
    4.4489   -0.9633    1.1289 c   0  0  0  0  0  0  0  0  0  0  0  0
    1.3159    1.9249   -0.1272 h   0  0  0  0  0  0  0  0  0  0  0  0
    1.2809    1.1147    1.5157 h   0  0  0  0  0  0  0  0  0  0  0  0
    2.9331    0.2875   -0.9212 h   0  0  0  0  0  0  0  0  0  0  0  0
    0.3990   -1.0708    0.5613 h   0  0  0  0  0  0  0  0  0  0  0  0
   -1.0834   -2.7242    1.5875 h   0  0  0  0  0  0  0  0  0  0  0  0
   -0.1754   -4.4436    3.1085 h   0  0  0  0  0  0  0  0  0  0  0  0
    2.2388   -4.5540    3.5424 h   0  0  0  0  0  0  0  0  0  0  0  0
    4.0386   -4.8636    0.9264 h   0  0  0  0  0  0  0  0  0  0  0  0
    4.2211   -7.1616    0.0811 h   0  0  0  0  0  0  0  0  0  0  0  0
    5.0497   -8.9613    1.5538 h   0  0  0  0  0  0  0  0  0  0  0  0
    5.7674   -8.4604    3.8382 h   0  0  0  0  0  0  0  0  0  0  0  0
    5.8734   -7.2363    6.8303 h   0  0  0  0  0  0  0  0  0  0  0  0
    8.0066   -7.5848    4.6669 h   0  0  0  0  0  0  0  0  0  0  0  0
    7.8779   -8.4918    6.2536 h   0  0  0  0  0  0  0  0  0  0  0  0
    6.5483   -5.1202    7.4271 h   0  0  0  0  0  0  0  0  0  0  0  0
    6.2632   -2.8443    8.2779 h   0  0  0  0  0  0  0  0  0  0  0  0
    5.1899   -1.1146    6.8829 h   0  0  0  0  0  0  0  0  0  0  0  0
    4.4345   -1.6543    4.6105 h   0  0  0  0  0  0  0  0  0  0  0  0
    6.7821   -2.9238    2.6874 h   0  0  0  0  0  0  0  0  0  0  0  0
    8.2868   -1.2494    1.7089 h   0  0  0  0  0  0  0  0  0  0  0  0
    7.3688    0.6303    0.3999 h   0  0  0  0  0  0  0  0  0  0  0  0
    4.9579    0.8217    0.0310 h   0  0  0  0  0  0  0  0  0  0  0  0
  1  2  2  0  0  0  0
  2  3  1  0  0  0  0
  3  4  4  0  0  0  0
  4  5  4  0  0  0  0
  5  6  2  0  0  0  0
  6  7  4  0  0  0  0
  7  8  2  0  0  0  0
  4  9  4  0  0  0  0
  8  9  4  0  0  0  0
  9 10  4  0  0  0  0
 10 11  1  0  0  0  0
 11 12  4  0  0  0  0
 12 13  4  0  0  0  0
 13 14  2  0  0  0  0
 14 15  4  0  0  0  0
 15 16  2  0  0  0  0
 12 17  4  0  0  0  0
 16 17  4  0  0  0  0
 17 18  4  0  0  0  0
 18 19  1  0  0  0  0
 19 20  2  0  0  0  0
 18 21  4  0  0  0  0
 21 22  4  0  0  0  0
 22 23  2  0  0  0  0
 23 24  4  0  0  0  0
 24 25  2  0  0  0  0
 11 26  4  0  0  0  0
 21 26  4  0  0  0  0
 25 26  4  0  0  0  0
 10 27  4  0  0  0  0
 27 28  4  0  0  0  0
 28 29  2  0  0  0  0
 29 30  4  0  0  0  0
 30 31  2  0  0  0  0
  3 32  4  0  0  0  0
 27 32  4  0  0  0  0
 31 32  4  0  0  0  0
  1 33  1  0  0  0  0
  1 34  1  0  0  0  0
  2 35  1  0  0  0  0
  5 36  1  0  0  0  0
  6 37  1  0  0  0  0
  7 38  1  0  0  0  0
  8 39  1  0  0  0  0
 13 40  1  0  0  0  0
 14 41  1  0  0  0  0
 15 42  1  0  0  0  0
 16 43  1  0  0  0  0
 19 44  1  0  0  0  0
 20 45  1  0  0  0  0
 20 46  1  0  0  0  0
 22 47  1  0  0  0  0
 23 48  1  0  0  0  0
 24 49  1  0  0  0  0
 25 50  1  0  0  0  0
 28 51  1  0  0  0  0
 29 52  1  0  0  0  0
 30 53  1  0  0  0  0
 31 54  1  0  0  0  0
M  END
