
  xtb     02012214113D
 xtb: 6.4.1 (23d549d)
 17 17  0     0  0            999 V2000
    0.9202    0.1134    0.0021 c   0  0  0  0  0  0  0  0  0  0  0  0
    2.4024   -0.0043   -0.0033 c   0  0  0  0  0  0  0  0  0  0  0  0
    3.1864    1.0563   -0.0086 n   0  0  0  0  0  0  0  0  0  0  0  0
    4.4464    0.5749   -0.0123 n   0  0  0  0  0  0  0  0  0  0  0  0
    4.4738   -0.7789   -0.0093 c   0  0  0  0  0  0  0  0  0  0  0  0
    5.6454   -1.4846   -0.0121 n   0  0  0  0  0  0  0  0  0  0  0  0
    3.1549   -1.2006   -0.0034 c   0  0  0  0  0  0  0  0  0  0  0  0
    2.6232   -2.5941    0.0017 c   0  0  0  0  0  0  0  0  0  0  0  0
    0.6405    1.1626    0.0009 h   0  0  0  0  0  0  0  0  0  0  0  0
    0.5050   -0.3687    0.8866 h   0  0  0  0  0  0  0  0  0  0  0  0
    0.4983   -0.3725   -0.8772 h   0  0  0  0  0  0  0  0  0  0  0  0
    5.2263    1.2100   -0.0166 h   0  0  0  0  0  0  0  0  0  0  0  0
    6.5287   -1.0157   -0.0167 h   0  0  0  0  0  0  0  0  0  0  0  0
    5.6174   -2.4840   -0.0100 h   0  0  0  0  0  0  0  0  0  0  0  0
    3.4349   -3.3189    0.0003 h   0  0  0  0  0  0  0  0  0  0  0  0
    2.0015   -2.7718   -0.8765 h   0  0  0  0  0  0  0  0  0  0  0  0
    2.0082   -2.7679    0.8854 h   0  0  0  0  0  0  0  0  0  0  0  0
  1  2  1  0  0  0  0
  2  3  2  0  0  0  0
  3  4  1  0  0  0  0
  4  5  4  0  0  0  0
  5  6  1  0  0  0  0
  2  7  4  0  0  0  0
  5  7  4  0  0  0  0
  7  8  1  0  0  0  0
  1  9  1  0  0  0  0
  1 10  1  0  0  0  0
  1 11  1  0  0  0  0
  4 12  1  0  0  0  0
  6 13  1  0  0  0  0
  6 14  1  0  0  0  0
  8 15  1  0  0  0  0
  8 16  1  0  0  0  0
  8 17  1  0  0  0  0
M  END
