
  xtb     02032211363D
 xtb: 6.4.1 (23d549d)
 23 24  0     0  0            999 V2000
    4.2577    1.9645   -0.1056 C   0  0  0  0  0  0  0  0  0  0  0  0
    3.7691    0.7367    0.0250 C   0  0  0  0  0  0  0  0  0  0  0  0
    2.3622    0.3543    0.0254 C   0  0  0  0  0  0  0  0  0  0  0  0
    2.0437   -1.0030    0.1139 C   0  0  0  0  0  0  0  0  0  0  0  0
    0.7397   -1.4994    0.1066 C   0  0  0  0  0  0  0  0  0  0  0  0
    0.4973   -2.9354    0.1688 C   0  0  0  0  0  0  0  0  0  0  0  0
   -0.5575   -3.5694   -0.3279 C   0  0  0  0  0  0  0  0  0  0  0  0
   -0.2674   -0.5388    0.0408 C   0  0  0  0  0  0  0  0  0  0  0  0
   -1.6430   -0.5921    0.0661 N   0  0  0  0  0  0  0  0  0  0  0  0
   -2.1428    0.6792    0.0118 C   0  0  0  0  0  0  0  0  0  0  0  0
   -3.7169    1.0883    0.0256 S   0  0  0  0  0  0  0  0  0  0  0  0
   -1.1172    1.5492   -0.0624 O   0  0  0  0  0  0  0  0  0  0  0  0
    0.0432    0.8274   -0.0340 C   0  0  0  0  0  0  0  0  0  0  0  0
    1.3331    1.3006   -0.0526 C   0  0  0  0  0  0  0  0  0  0  0  0
    5.3186    2.1448   -0.0947 H   0  0  0  0  0  0  0  0  0  0  0  0
    3.6349    2.8330   -0.2301 H   0  0  0  0  0  0  0  0  0  0  0  0
    4.4581   -0.0905    0.1402 H   0  0  0  0  0  0  0  0  0  0  0  0
    2.8526   -1.7170    0.1753 H   0  0  0  0  0  0  0  0  0  0  0  0
    1.2880   -3.5062    0.6386 H   0  0  0  0  0  0  0  0  0  0  0  0
   -1.3432   -3.0639   -0.8636 H   0  0  0  0  0  0  0  0  0  0  0  0
   -0.6527   -4.6387   -0.2523 H   0  0  0  0  0  0  0  0  0  0  0  0
   -2.2217   -1.4050    0.1901 H   0  0  0  0  0  0  0  0  0  0  0  0
    1.5267    2.3569   -0.1120 H   0  0  0  0  0  0  0  0  0  0  0  0
  1  2  2  0  0  0  0
  2  3  1  0  0  0  0
  3  4  4  0  0  0  0
  4  5  4  0  0  0  0
  5  6  1  0  0  0  0
  6  7  2  0  0  0  0
  5  8  4  0  0  0  0
  8  9  1  0  0  0  0
  9 10  4  0  0  0  0
 10 11  2  0  0  0  0
 10 12  1  0  0  0  0
  8 13  4  0  0  0  0
 12 13  1  0  0  0  0
  3 14  4  0  0  0  0
 13 14  4  0  0  0  0
  1 15  1  0  0  0  0
  1 16  1  0  0  0  0
  2 17  1  0  0  0  0
  4 18  1  0  0  0  0
  6 19  1  0  0  0  0
  7 20  1  0  0  0  0
  7 21  1  0  0  0  0
  9 22  1  0  0  0  0
 14 23  1  0  0  0  0
M  END
