26

C          0.90799       -0.45656       -0.74989
C          1.85210       -0.16520        0.15690
C          2.71750       -1.16600        0.86520
C          3.67980       -0.78120        1.81810
C          4.49620       -1.72110        2.49090
C          5.55480       -1.24160        3.44470
C          5.99215       -1.89968        4.53034
C          4.29470       -3.10330        2.18200
N          4.97790       -4.20350        2.79770
N          6.27005       -4.13191        3.30721
N          3.37360       -3.43230        1.23850
C          2.59530       -2.53990        0.58020
C          1.62120       -3.07350       -0.43110
H          0.34229        0.35049       -1.20522
H          0.67138       -1.46179       -1.06874
H          1.98592        0.88906        0.37213
H          3.80370        0.26220        2.02040
H          6.01438       -0.28273        3.30286
H          5.63832       -2.87368        4.83446
H          6.75423       -1.44361        5.15509
H          4.37056       -4.91586        3.22964
H          6.50859       -3.15226        3.58555
H          6.93730       -4.57566        2.63794
H          1.69050       -4.18050       -0.49530
H          1.84810       -2.65430       -1.43400
H          0.58410       -2.80720       -0.13770
26

C          0.60570       -0.38873       -0.28472
C          1.85210       -0.16520        0.15690
C          2.71750       -1.16600        0.86520
C          3.67980       -0.78120        1.81810
C          4.49620       -1.72110        2.49090
C          5.55480       -1.24160        3.44470
C          5.39257       -1.03615        4.76168
C          4.29470       -3.10330        2.18200
N          4.97790       -4.20350        2.79770
N          5.25404       -5.40660        2.15686
N          3.37360       -3.43230        1.23850
C          2.59530       -2.53990        0.58020
C          1.62120       -3.07350       -0.43110
H          0.07080        0.40908       -0.79071
H          0.08914       -1.33155       -0.17334
H          2.24595        0.82697       -0.03331
H          3.80370        0.26220        2.02040
H          6.53729       -1.00433        3.08527
H          4.47080       -1.21363        5.29571
H          6.23076       -0.67241        5.34837
H          5.62003       -3.95269        3.56428
H          5.31346       -5.27360        1.12106
H          4.57585       -6.13594        2.47017
H          1.69050       -4.18050       -0.49530
H          1.84810       -2.65430       -1.43400
H          0.58410       -2.80720       -0.13770
26

C          0.65215        0.26142        0.57717
C          1.85210       -0.16520        0.15690
C          2.71750       -1.16600        0.86520
C          3.67980       -0.78120        1.81810
C          4.49620       -1.72110        2.49090
C          5.55480       -1.24160        3.44470
C          5.50571       -0.11442        4.17272
C          4.29470       -3.10330        2.18200
N          4.97790       -4.20350        2.79770
N          5.25404       -5.40660        2.15686
N          3.37360       -3.43230        1.23850
C          2.59530       -2.53990        0.58020
C          1.62120       -3.07350       -0.43110
H          0.10806        0.98722       -0.01935
H          0.17785       -0.08030        1.48623
H          2.19881        0.25841       -0.77907
H          3.80370        0.26220        2.02040
H          6.46076       -1.80196        3.57120
H          4.67604        0.57693        4.16777
H          6.34169        0.13573        4.81898
H          5.62003       -3.95269        3.56428
H          5.31346       -5.27360        1.12106
H          4.57585       -6.13594        2.47017
H          1.69050       -4.18050       -0.49530
H          1.84810       -2.65430       -1.43400
H          0.58410       -2.80720       -0.13770
26

C          0.65215        0.26142        0.57717
C          1.85210       -0.16520        0.15690
C          2.71750       -1.16600        0.86520
C          3.67980       -0.78120        1.81810
C          4.49620       -1.72110        2.49090
C          5.55480       -1.24160        3.44470
C          5.99215       -1.89968        4.53034
C          4.29470       -3.10330        2.18200
N          4.97790       -4.20350        2.79770
N          6.27005       -4.13191        3.30721
N          3.37360       -3.43230        1.23850
C          2.59530       -2.53990        0.58020
C          1.62120       -3.07350       -0.43110
H          0.10806        0.98722       -0.01935
H          0.17785       -0.08030        1.48623
H          2.19881        0.25841       -0.77907
H          3.80370        0.26220        2.02040
H          6.01438       -0.28273        3.30286
H          5.63832       -2.87368        4.83446
H          6.75423       -1.44361        5.15509
H          4.37056       -4.91586        3.22964
H          6.50859       -3.15226        3.58555
H          6.93730       -4.57566        2.63794
H          1.69050       -4.18050       -0.49530
H          1.84810       -2.65430       -1.43400
H          0.58410       -2.80720       -0.13770
26

C          1.88965        1.16293        0.33900
C          1.85210       -0.16520        0.15690
C          2.71750       -1.16600        0.86520
C          3.67980       -0.78120        1.81810
C          4.49620       -1.72110        2.49090
C          5.55480       -1.24160        3.44470
C          5.99215       -1.89968        4.53034
C          4.29470       -3.10330        2.18200
N          4.97790       -4.20350        2.79770
N          4.42336       -5.46727        2.97019
N          3.37360       -3.43230        1.23850
C          2.59530       -2.53990        0.58020
C          1.62120       -3.07350       -0.43110
H          1.21153        1.79547       -0.22556
H          2.55997        1.65581        1.02883
H          1.12152       -0.51936       -0.56180
H          3.80370        0.26220        2.02040
H          6.01438       -0.28273        3.30286
H          5.63832       -2.87368        4.83446
H          6.75423       -1.44361        5.15509
H          6.00665       -4.17615        2.73597
H          3.68301       -5.65168        2.25467
H          4.11834       -5.58536        3.96169
H          1.69050       -4.18050       -0.49530
H          1.84810       -2.65430       -1.43400
H          0.58410       -2.80720       -0.13770
26

C          1.45585        1.01382        0.65831
C          1.85210       -0.16520        0.15690
C          2.71750       -1.16600        0.86520
C          3.67980       -0.78120        1.81810
C          4.49620       -1.72110        2.49090
C          5.55480       -1.24160        3.44470
C          6.71781       -1.86013        3.70505
C          4.29470       -3.10330        2.18200
N          4.97790       -4.20350        2.79770
N          4.76777       -5.53706        2.46330
N          3.37360       -3.43230        1.23850
C          2.59530       -2.53990        0.58020
C          1.62120       -3.07350       -0.43110
H          0.82359        1.66049        0.05771
H          1.72475        1.36843        1.64324
H          1.49734       -0.39279       -0.84213
H          3.80370        0.26220        2.02040
H          5.40367       -0.34318        4.01107
H          7.03626       -2.77897        3.23531
H          7.39993       -1.42332        4.42824
H          5.90778       -3.98570        3.18600
H          4.42222       -5.62614        1.48006
H          4.16551       -5.99032        3.18573
H          1.69050       -4.18050       -0.49530
H          1.84810       -2.65430       -1.43400
H          0.58410       -2.80720       -0.13770
26

C          0.65215        0.26142        0.57717
C          1.85210       -0.16520        0.15690
C          2.71750       -1.16600        0.86520
C          3.67980       -0.78120        1.81810
C          4.49620       -1.72110        2.49090
C          5.55480       -1.24160        3.44470
C          6.82857       -0.95786        3.12853
C          4.29470       -3.10330        2.18200
N          4.97790       -4.20350        2.79770
N          5.25404       -5.40660        2.15686
N          3.37360       -3.43230        1.23850
C          2.59530       -2.53990        0.58020
C          1.62120       -3.07350       -0.43110
H          0.10806        0.98722       -0.01935
H          0.17785       -0.08030        1.48623
H          2.19881        0.25841       -0.77907
H          3.80370        0.26220        2.02040
H          5.32876       -1.12397        4.48674
H          7.23716       -1.02622        2.13118
H          7.50852       -0.63224        3.91002
H          5.62003       -3.95269        3.56428
H          5.31346       -5.27360        1.12106
H          4.57585       -6.13594        2.47017
H          1.69050       -4.18050       -0.49530
H          1.84810       -2.65430       -1.43400
H          0.58410       -2.80720       -0.13770
26

C          2.19613        1.10017       -0.12414
C          1.85210       -0.16520        0.15690
C          2.71750       -1.16600        0.86520
C          3.67980       -0.78120        1.81810
C          4.49620       -1.72110        2.49090
C          5.55480       -1.24160        3.44470
C          6.71781       -1.86013        3.70505
C          4.29470       -3.10330        2.18200
N          4.97790       -4.20350        2.79770
N          5.94094       -4.06522        3.79159
N          3.37360       -3.43230        1.23850
C          2.59530       -2.53990        0.58020
C          1.62120       -3.07350       -0.43110
H          1.48675        1.74140       -0.63821
H          3.15027        1.53533        0.13736
H          0.85782       -0.46167       -0.15808
H          3.80370        0.26220        2.02040
H          5.40367       -0.34318        4.01107
H          7.03626       -2.77897        3.23531
H          7.39993       -1.42332        4.42824
H          4.46504       -5.09785        2.79960
H          5.80221       -3.17667        4.32576
H          6.89222       -4.18869        3.37944
H          1.69050       -4.18050       -0.49530
H          1.84810       -2.65430       -1.43400
H          0.58410       -2.80720       -0.13770
26

C          2.14868        0.43600       -1.00461
C          1.85210       -0.16520        0.15690
C          2.71750       -1.16600        0.86520
C          3.67980       -0.78120        1.81810
C          4.49620       -1.72110        2.49090
C          5.55480       -1.24160        3.44470
C          5.82354        0.03984        3.74242
C          4.29470       -3.10330        2.18200
N          4.97790       -4.20350        2.79770
N          5.94094       -4.06522        3.79159
N          3.37360       -3.43230        1.23850
C          2.59530       -2.53990        0.58020
C          1.62120       -3.07350       -0.43110
H          1.44868        1.15079       -1.42621
H          3.05965        0.25710       -1.55801
H          0.90597        0.11916        0.60376
H          3.80370        0.26220        2.02040
H          6.19608       -1.94633        3.93754
H          5.28640        0.88401        3.33596
H          6.62603        0.26502        4.43840
H          4.46504       -5.09785        2.79960
H          5.80221       -3.17667        4.32576
H          6.89222       -4.18869        3.37944
H          1.69050       -4.18050       -0.49530
H          1.84810       -2.65430       -1.43400
H          0.58410       -2.80720       -0.13770
26

C          1.88965        1.16293        0.33900
C          1.85210       -0.16520        0.15690
C          2.71750       -1.16600        0.86520
C          3.67980       -0.78120        1.81810
C          4.49620       -1.72110        2.49090
C          5.55480       -1.24160        3.44470
C          5.99215       -1.89968        4.53034
C          4.29470       -3.10330        2.18200
N          4.97790       -4.20350        2.79770
N          6.27005       -4.13191        3.30721
N          3.37360       -3.43230        1.23850
C          2.59530       -2.53990        0.58020
C          1.62120       -3.07350       -0.43110
H          1.21153        1.79547       -0.22556
H          2.55997        1.65581        1.02883
H          1.12152       -0.51936       -0.56180
H          3.80370        0.26220        2.02040
H          6.01438       -0.28273        3.30286
H          5.63832       -2.87368        4.83446
H          6.75423       -1.44361        5.15509
H          4.37056       -4.91586        3.22964
H          6.50859       -3.15226        3.58555
H          6.93730       -4.57566        2.63794
H          1.69050       -4.18050       -0.49530
H          1.84810       -2.65430       -1.43400
H          0.58410       -2.80720       -0.13770
