
 OpenBabel02012213433D

 46 48  0  0  0  0  0  0  0  0999 V2000
    6.1307   -0.2429    1.1861 C   0  0  0  0  0  0  0  0  0  0  0  0
    5.0896    0.3024    1.9077 O   0  0  0  0  0  0  0  0  0  0  0  0
    3.8960   -0.3113    2.1000 C   0  0  0  0  0  0  0  0  0  0  0  0
    2.7951    0.3565    2.8689 C   0  0  0  0  0  0  0  0  0  0  0  0
    2.7955    1.7395    3.2630 C   0  0  0  0  0  0  0  0  0  0  0  0
    3.8079    2.6914    2.8592 N   0  0  0  0  0  0  0  0  0  0  0  0
    4.2723    3.6656    3.8267 C   0  0  0  0  0  0  0  0  0  0  0  0
    4.3398    3.3346    5.1998 C   0  0  0  0  0  0  0  0  0  0  0  0
    4.7736    4.2713    6.1567 C   0  0  0  0  0  0  0  0  0  0  0  0
    4.8543    3.9283    7.6235 C   0  0  0  0  0  0  0  0  0  0  0  0
    4.4601    2.6241    7.8698 F   0  0  0  0  0  0  0  0  0  0  0  0
    6.1568    4.0842    8.0618 F   0  0  0  0  0  0  0  0  0  0  0  0
    4.0324    4.7786    8.3407 F   0  0  0  0  0  0  0  0  0  0  0  0
    5.1395    5.5572    5.7370 C   0  0  0  0  0  0  0  0  0  0  0  0
    5.0719    5.9047    4.3899 C   0  0  0  0  0  0  0  0  0  0  0  0
    4.6431    4.9742    3.4431 C   0  0  0  0  0  0  0  0  0  0  0  0
    4.2035    2.7801    1.4705 C   0  0  0  0  0  0  0  0  0  0  0  0
    3.3410    2.3439    0.4399 C   0  0  0  0  0  0  0  0  0  0  0  0
    3.7315    2.4103   -0.9004 C   0  0  0  0  0  0  0  0  0  0  0  0
    4.9948    2.9070   -1.2466 C   0  0  0  0  0  0  0  0  0  0  0  0
    5.4289    2.9789   -2.6806 C   0  0  0  0  0  0  0  0  0  0  0  0
    5.8632    3.3361   -0.2375 C   0  0  0  0  0  0  0  0  0  0  0  0
    5.4756    3.2736    1.1025 C   0  0  0  0  0  0  0  0  0  0  0  0
    1.7266    2.2094    4.0610 C   0  0  0  0  0  0  0  0  0  0  0  0
    0.6832    1.3739    4.4472 C   0  0  0  0  0  0  0  0  0  0  0  0
    0.6726    0.0455    4.0478 C   0  0  0  0  0  0  0  0  0  0  0  0
    1.7122   -0.4584    3.2710 C   0  0  0  0  0  0  0  0  0  0  0  0
    3.7395   -1.4561    1.6936 O   0  0  0  0  0  0  0  0  0  0  0  0
    6.9840    0.4656    1.1866 H   0  0  0  0  0  0  0  0  0  0  0  0
    5.8139   -0.4177    0.1353 H   0  0  0  0  0  0  0  0  0  0  0  0
    6.4573   -1.2002    1.6454 H   0  0  0  0  0  0  0  0  0  0  0  0
    4.0629    2.3389    5.5193 H   0  0  0  0  0  0  0  0  0  0  0  0
    5.4737    6.2945    6.4570 H   0  0  0  0  0  0  0  0  0  0  0  0
    5.3478    6.9037    4.0770 H   0  0  0  0  0  0  0  0  0  0  0  0
    4.5839    5.2974    2.4136 H   0  0  0  0  0  0  0  0  0  0  0  0
    2.3564    1.9574    0.6659 H   0  0  0  0  0  0  0  0  0  0  0  0
    3.0457    2.0716   -1.6670 H   0  0  0  0  0  0  0  0  0  0  0  0
    4.6390    2.6036   -3.3653 H   0  0  0  0  0  0  0  0  0  0  0  0
    6.3411    2.3622   -2.8247 H   0  0  0  0  0  0  0  0  0  0  0  0
    5.6563    4.0320   -2.9491 H   0  0  0  0  0  0  0  0  0  0  0  0
    6.8466    3.7146   -0.4884 H   0  0  0  0  0  0  0  0  0  0  0  0
    6.1871    3.5931    1.8516 H   0  0  0  0  0  0  0  0  0  0  0  0
    1.6869    3.2458    4.3710 H   0  0  0  0  0  0  0  0  0  0  0  0
   -0.1258    1.7625    5.0524 H   0  0  0  0  0  0  0  0  0  0  0  0
   -0.1415   -0.6018    4.3479 H   0  0  0  0  0  0  0  0  0  0  0  0
    1.6719   -1.5060    2.9998 H   0  0  0  0  0  0  0  0  0  0  0  0
  1  2  1  0  0  0  0
  1 29  1  0  0  0  0
  1 30  1  0  0  0  0
  1 31  1  0  0  0  0
  2  3  1  0  0  0  0
  3  4  1  0  0  0  0
  3 28  2  0  0  0  0
  4  5  1  0  0  0  0
  4 27  2  0  0  0  0
  5  6  1  0  0  0  0
  5 24  2  0  0  0  0
  6  7  1  0  0  0  0
  6 17  1  0  0  0  0
  7  8  1  0  0  0  0
  7 16  2  0  0  0  0
  8  9  2  0  0  0  0
  8 32  1  0  0  0  0
  9 10  1  0  0  0  0
  9 14  1  0  0  0  0
 10 11  1  0  0  0  0
 10 12  1  0  0  0  0
 10 13  1  0  0  0  0
 14 15  2  0  0  0  0
 14 33  1  0  0  0  0
 15 16  1  0  0  0  0
 15 34  1  0  0  0  0
 16 35  1  0  0  0  0
 17 18  1  0  0  0  0
 17 23  2  0  0  0  0
 18 19  2  0  0  0  0
 18 36  1  0  0  0  0
 19 20  1  0  0  0  0
 19 37  1  0  0  0  0
 20 21  1  0  0  0  0
 20 22  2  0  0  0  0
 21 38  1  0  0  0  0
 21 39  1  0  0  0  0
 21 40  1  0  0  0  0
 22 23  1  0  0  0  0
 22 41  1  0  0  0  0
 23 42  1  0  0  0  0
 24 25  1  0  0  0  0
 24 43  1  0  0  0  0
 25 26  2  0  0  0  0
 25 44  1  0  0  0  0
 26 27  1  0  0  0  0
 26 45  1  0  0  0  0
 27 46  1  0  0  0  0
M  END
