 xtb: 6.5.0 (unknown)
          08122213063D

 23  0  0     0  0            999 V2000
   -2.7440   -2.8150    0.0184 c   0  0  0  0  0  0  0  0  0  0  0  0
   -2.2828   -1.6818    0.5287 c   0  0  0  0  0  0  0  0  0  0  0  0
   -0.9440   -1.1456    0.2938 c   0  0  0  0  0  0  0  0  0  0  0  0
    0.1417   -2.0115    0.1608 c   0  0  0  0  0  0  0  0  0  0  0  0
    1.4318   -1.5417    0.0246 c   0  0  0  0  0  0  0  0  0  0  0  0
    1.6574   -0.1714    0.0417 c   0  0  0  0  0  0  0  0  0  0  0  0
    3.0440    0.3935   -0.0711 c   0  0  0  0  0  0  0  0  0  0  0  0
    3.9960   -0.5436   -0.1564 f   0  0  0  0  0  0  0  0  0  0  0  0
    3.1856    1.1802   -1.1544 f   0  0  0  0  0  0  0  0  0  0  0  0
    3.3623    1.1646    0.9866 f   0  0  0  0  0  0  0  0  0  0  0  0
    0.5974    0.7118    0.1695 c   0  0  0  0  0  0  0  0  0  0  0  0
   -0.7075    0.2402    0.2733 c   0  0  0  0  0  0  0  0  0  0  0  0
   -1.7783    1.2344    0.3505 c   0  0  0  0  0  0  0  0  0  0  0  0
   -2.9283    1.1878   -0.3021 c   0  0  0  0  0  0  0  0  0  0  0  0
   -3.3299    0.2517   -1.1493 f   0  0  0  0  0  0  0  0  0  0  0  0
   -3.8589    2.1323   -0.2192 f   0  0  0  0  0  0  0  0  0  0  0  0
   -3.7363   -3.1675    0.2385 h   0  0  0  0  0  0  0  0  0  0  0  0
   -2.1636   -3.4151   -0.6612 h   0  0  0  0  0  0  0  0  0  0  0  0
   -2.9158   -1.0836    1.1719 h   0  0  0  0  0  0  0  0  0  0  0  0
   -0.0342   -3.0753    0.1905 h   0  0  0  0  0  0  0  0  0  0  0  0
    2.2588   -2.2270   -0.0761 h   0  0  0  0  0  0  0  0  0  0  0  0
    0.7861    1.7751    0.1721 h   0  0  0  0  0  0  0  0  0  0  0  0
   -1.5945    2.1198    0.9409 h   0  0  0  0  0  0  0  0  0  0  0  0
M  END
