
  xtb     02032211363D
 xtb: 6.4.1 (23d549d)
 24 25  0     0  0            999 V2000
    3.5847   -2.5303   -0.0639 C   0  0  0  0  0  0  0  0  0  0  0  0
    3.2989   -1.2378    0.0389 C   0  0  0  0  0  0  0  0  0  0  0  0
    1.9686   -0.6401    0.0365 C   0  0  0  0  0  0  0  0  0  0  0  0
    1.8603    0.7502    0.0774 C   0  0  0  0  0  0  0  0  0  0  0  0
    0.6402    1.4352    0.0801 C   0  0  0  0  0  0  0  0  0  0  0  0
    0.5569    2.8914    0.1329 C   0  0  0  0  0  0  0  0  0  0  0  0
    1.5134    3.7337   -0.2360 C   0  0  0  0  0  0  0  0  0  0  0  0
   -0.5049    0.6451    0.0478 C   0  0  0  0  0  0  0  0  0  0  0  0
   -0.4199   -0.7570    0.0086 C   0  0  0  0  0  0  0  0  0  0  0  0
    0.7980   -1.4064    0.0019 C   0  0  0  0  0  0  0  0  0  0  0  0
   -1.7826   -1.2975   -0.0229 C   0  0  0  0  0  0  0  0  0  0  0  0
   -2.1579   -2.4401   -0.0533 O   0  0  0  0  0  0  0  0  0  0  0  0
   -2.6912   -0.0385   -0.0088 C   0  0  0  0  0  0  0  0  0  0  0  0
   -3.8924    0.0206   -0.0306 O   0  0  0  0  0  0  0  0  0  0  0  0
   -1.8373    1.0311    0.0342 N   0  0  0  0  0  0  0  0  0  0  0  0
    4.6034   -2.8773   -0.0543 H   0  0  0  0  0  0  0  0  0  0  0  0
    2.8301   -3.2909   -0.1640 H   0  0  0  0  0  0  0  0  0  0  0  0
    4.1109   -0.5269    0.1293 H   0  0  0  0  0  0  0  0  0  0  0  0
    2.7685    1.3323    0.1269 H   0  0  0  0  0  0  0  0  0  0  0  0
   -0.3806    3.2890    0.5012 H   0  0  0  0  0  0  0  0  0  0  0  0
    2.4554    3.3995   -0.6355 H   0  0  0  0  0  0  0  0  0  0  0  0
    1.3797    4.7990   -0.1648 H   0  0  0  0  0  0  0  0  0  0  0  0
    0.8249   -2.4832   -0.0234 H   0  0  0  0  0  0  0  0  0  0  0  0
   -2.1526    1.9888    0.0369 H   0  0  0  0  0  0  0  0  0  0  0  0
  1  2  2  0  0  0  0
  2  3  1  0  0  0  0
  3  4  4  0  0  0  0
  4  5  4  0  0  0  0
  5  6  1  0  0  0  0
  6  7  2  0  0  0  0
  5  8  4  0  0  0  0
  8  9  4  0  0  0  0
  3 10  4  0  0  0  0
  9 10  4  0  0  0  0
  9 11  1  0  0  0  0
 11 12  2  0  0  0  0
 11 13  1  0  0  0  0
 13 14  2  0  0  0  0
  8 15  1  0  0  0  0
 13 15  1  0  0  0  0
  1 16  1  0  0  0  0
  1 17  1  0  0  0  0
  2 18  1  0  0  0  0
  4 19  1  0  0  0  0
  6 20  1  0  0  0  0
  7 21  1  0  0  0  0
  7 22  1  0  0  0  0
 10 23  1  0  0  0  0
 15 24  1  0  0  0  0
M  END
