
  xtb     02032210553D
 xtb: 6.4.1 (23d549d)
 21 22  0     0  0            999 V2000
    1.7320   -0.5805   -0.7279 c   0  0  0  0  0  0  0  0  0  0  0  0
    2.8153   -0.0143   -0.2041 c   0  0  0  0  0  0  0  0  0  0  0  0
    3.4031   -0.3123    1.0886 c   0  0  0  0  0  0  0  0  0  0  0  0
    2.9111   -1.2284    1.9988 c   0  0  0  0  0  0  0  0  0  0  0  0
    3.5184   -1.4774    3.2340 c   0  0  0  0  0  0  0  0  0  0  0  0
    4.6648   -0.8298    3.6539 c   0  0  0  0  0  0  0  0  0  0  0  0
    5.3372   -1.0497    4.9208 c   0  0  0  0  0  0  0  0  0  0  0  0
    4.9614   -1.8926    5.8779 c   0  0  0  0  0  0  0  0  0  0  0  0
    5.2038    0.1204    2.7497 c   0  0  0  0  0  0  0  0  0  0  0  0
    6.2943    0.8666    2.9285 n   0  0  0  0  0  0  0  0  0  0  0  0
    6.5063    1.7921    1.6320 s   0  0  0  0  0  0  0  0  0  0  0  0
    5.2361    1.3013    0.7789 n   0  0  0  0  0  0  0  0  0  0  0  0
    4.5790    0.3770    1.4802 c   0  0  0  0  0  0  0  0  0  0  0  0
    1.3684   -0.2925   -1.6990 h   0  0  0  0  0  0  0  0  0  0  0  0
    1.1685   -1.3459   -0.2209 h   0  0  0  0  0  0  0  0  0  0  0  0
    3.3466    0.7489   -0.7580 h   0  0  0  0  0  0  0  0  0  0  0  0
    2.0168   -1.7814    1.7554 h   0  0  0  0  0  0  0  0  0  0  0  0
    3.0635   -2.2115    3.8812 h   0  0  0  0  0  0  0  0  0  0  0  0
    6.2261   -0.4465    5.0519 h   0  0  0  0  0  0  0  0  0  0  0  0
    4.0851   -2.5141    5.7993 h   0  0  0  0  0  0  0  0  0  0  0  0
    5.5273   -1.9884    6.7883 h   0  0  0  0  0  0  0  0  0  0  0  0
  1  2  2  0  0  0  0
  2  3  1  0  0  0  0
  3  4  4  0  0  0  0
  4  5  4  0  0  0  0
  5  6  4  0  0  0  0
  6  7  1  0  0  0  0
  7  8  2  0  0  0  0
  6  9  1  0  0  0  0
  9 10  4  0  0  0  0
 10 11  2  0  0  0  0
 11 12  2  0  0  0  0
  3 13  1  0  0  0  0
  9 13  1  0  0  0  0
 12 13  4  0  0  0  0
  1 14  1  0  0  0  0
  1 15  1  0  0  0  0
  2 16  1  0  0  0  0
  4 17  1  0  0  0  0
  5 18  1  0  0  0  0
  7 19  1  0  0  0  0
  8 20  1  0  0  0  0
  8 21  1  0  0  0  0
M  END
