
 OpenBabel02012214103D

 22 22  0  0  0  0  0  0  0  0999 V2000
    1.1927   -0.3671   -0.2273 C   0  0  0  0  0  0  0  0  0  0  0  0
    2.3489    0.2428    0.2122 O   0  0  0  0  0  0  0  0  0  0  0  0
    3.0580   -0.1023    1.3185 C   0  0  0  0  0  0  0  0  0  0  0  0
    2.6972   -1.1864    2.1447 C   0  0  0  0  0  0  0  0  0  0  0  0
    3.4632   -1.5011    3.2787 C   0  0  0  0  0  0  0  0  0  0  0  0
    3.0877   -2.6537    4.1636 C   0  0  0  0  0  0  0  0  0  0  0  0
    4.5916   -0.7296    3.5884 C   0  0  0  0  0  0  0  0  0  0  0  0
    4.9594    0.3505    2.7729 C   0  0  0  0  0  0  0  0  0  0  0  0
    6.1642    1.1832    3.0979 C   0  0  0  0  0  0  0  0  0  0  0  0
    4.1900    0.6552    1.6411 C   0  0  0  0  0  0  0  0  0  0  0  0
    0.8492    0.1328   -1.1560 H   0  0  0  0  0  0  0  0  0  0  0  0
    0.3955   -0.2733    0.5410 H   0  0  0  0  0  0  0  0  0  0  0  0
    1.3827   -1.4385   -0.4518 H   0  0  0  0  0  0  0  0  0  0  0  0
    1.8271   -1.7862    1.9130 H   0  0  0  0  0  0  0  0  0  0  0  0
    2.1770   -3.1724    3.7959 H   0  0  0  0  0  0  0  0  0  0  0  0
    2.8906   -2.2852    5.1924 H   0  0  0  0  0  0  0  0  0  0  0  0
    3.9208   -3.3873    4.1939 H   0  0  0  0  0  0  0  0  0  0  0  0
    5.1810   -0.9726    4.4650 H   0  0  0  0  0  0  0  0  0  0  0  0
    6.6707    0.8266    4.0201 H   0  0  0  0  0  0  0  0  0  0  0  0
    5.8566    2.2388    3.2527 H   0  0  0  0  0  0  0  0  0  0  0  0
    6.8891    1.1354    2.2580 H   0  0  0  0  0  0  0  0  0  0  0  0
    4.4701    1.4891    1.0081 H   0  0  0  0  0  0  0  0  0  0  0  0
  1  2  1  0  0  0  0
  1 11  1  0  0  0  0
  1 12  1  0  0  0  0
  1 13  1  0  0  0  0
  2  3  1  0  0  0  0
  3  4  1  0  0  0  0
  3 10  2  0  0  0  0
  4  5  2  0  0  0  0
  4 14  1  0  0  0  0
  5  6  1  0  0  0  0
  5  7  1  0  0  0  0
  6 15  1  0  0  0  0
  6 16  1  0  0  0  0
  6 17  1  0  0  0  0
  7  8  2  0  0  0  0
  7 18  1  0  0  0  0
  8  9  1  0  0  0  0
  8 10  1  0  0  0  0
  9 19  1  0  0  0  0
  9 20  1  0  0  0  0
  9 21  1  0  0  0  0
 10 22  1  0  0  0  0
M  END
