
  xtb     02032211343D
 xtb: 6.4.1 (23d549d)
 19 19  0     0  0            999 V2000
    4.5596   -0.9735   -0.0102 C   0  0  0  0  0  0  0  0  0  0  0  0
    3.8052    0.1197    0.0016 C   0  0  0  0  0  0  0  0  0  0  0  0
    2.3518    0.1632    0.0029 C   0  0  0  0  0  0  0  0  0  0  0  0
    1.5302   -0.9672    0.0064 C   0  0  0  0  0  0  0  0  0  0  0  0
    0.1579   -0.8215    0.0058 C   0  0  0  0  0  0  0  0  0  0  0  0
   -0.3850    0.4670    0.0017 C   0  0  0  0  0  0  0  0  0  0  0  0
   -1.8086    0.7647   -0.0005 C   0  0  0  0  0  0  0  0  0  0  0  0
   -2.8239   -0.0852   -0.0013 C   0  0  0  0  0  0  0  0  0  0  0  0
   -2.7721   -1.4122    0.0001 F   0  0  0  0  0  0  0  0  0  0  0  0
   -4.0978    0.2937   -0.0040 F   0  0  0  0  0  0  0  0  0  0  0  0
    0.3936    1.5515   -0.0003 N   0  0  0  0  0  0  0  0  0  0  0  0
    1.6975    1.4015    0.0006 C   0  0  0  0  0  0  0  0  0  0  0  0
    5.6340   -0.9105   -0.0111 H   0  0  0  0  0  0  0  0  0  0  0  0
    4.1467   -1.9677   -0.0203 H   0  0  0  0  0  0  0  0  0  0  0  0
    4.2821    1.0922    0.0099 H   0  0  0  0  0  0  0  0  0  0  0  0
    1.9607   -1.9570    0.0104 H   0  0  0  0  0  0  0  0  0  0  0  0
   -0.4778   -1.6912    0.0087 H   0  0  0  0  0  0  0  0  0  0  0  0
   -2.0522    1.8164   -0.0023 H   0  0  0  0  0  0  0  0  0  0  0  0
    2.2688    2.3221   -0.0012 H   0  0  0  0  0  0  0  0  0  0  0  0
  1  2  2  0  0  0  0
  2  3  1  0  0  0  0
  3  4  4  0  0  0  0
  4  5  4  0  0  0  0
  5  6  4  0  0  0  0
  6  7  1  0  0  0  0
  7  8  2  0  0  0  0
  8  9  1  0  0  0  0
  8 10  1  0  0  0  0
  6 11  4  0  0  0  0
  3 12  4  0  0  0  0
 11 12  4  0  0  0  0
  1 13  1  0  0  0  0
  1 14  1  0  0  0  0
  2 15  1  0  0  0  0
  4 16  1  0  0  0  0
  5 17  1  0  0  0  0
  7 18  1  0  0  0  0
 12 19  1  0  0  0  0
M  END
