
  xtb     02032211353D
 xtb: 6.4.1 (23d549d)
 47 47  0     0  0            999 V2000
    4.7982   -1.7623    3.5664 C   0  0  0  0  0  0  0  0  0  0  0  0
    4.2192   -2.1926    2.4478 C   0  0  0  0  0  0  0  0  0  0  0  0
    3.2391   -1.4665    1.6866 C   0  0  0  0  0  0  0  0  0  0  0  0
    2.6858   -0.2305    1.9063 C   0  0  0  0  0  0  0  0  0  0  0  0
    1.7519    0.1638    0.9322 C   0  0  0  0  0  0  0  0  0  0  0  0
    0.9887    1.4495    1.0109 C   0  0  0  0  0  0  0  0  0  0  0  0
   -0.4142    1.2021    1.5792 C   0  0  0  0  0  0  0  0  0  0  0  0
   -1.2244    2.4823    1.7826 C   0  0  0  0  0  0  0  0  0  0  0  0
   -1.4754    3.3031    0.5144 C   0  0  0  0  0  0  0  0  0  0  0  0
   -2.0934    2.5249   -0.6480 C   0  0  0  0  0  0  0  0  0  0  0  0
   -3.4495    1.9066   -0.3177 C   0  0  0  0  0  0  0  0  0  0  0  0
   -4.0984    1.2269   -1.5244 C   0  0  0  0  0  0  0  0  0  0  0  0
   -3.3163    0.0076   -2.0136 C   0  0  0  0  0  0  0  0  0  0  0  0
   -4.0979   -0.8463   -3.0123 C   0  0  0  0  0  0  0  0  0  0  0  0
   -4.3584   -0.1322   -4.3334 C   0  0  0  0  0  0  0  0  0  0  0  0
    1.5765   -0.7904   -0.0496 C   0  0  0  0  0  0  0  0  0  0  0  0
    0.7057   -0.7316   -1.1901 C   0  0  0  0  0  0  0  0  0  0  0  0
    0.4739   -1.7357   -2.0315 C   0  0  0  0  0  0  0  0  0  0  0  0
    2.5869   -2.1763    0.2414 S   0  0  0  0  0  0  0  0  0  0  0  0
    5.5262   -2.3606    4.0848 H   0  0  0  0  0  0  0  0  0  0  0  0
    4.5672   -0.8048    3.9999 H   0  0  0  0  0  0  0  0  0  0  0  0
    4.4813   -3.1629    2.0458 H   0  0  0  0  0  0  0  0  0  0  0  0
    2.9449    0.3871    2.7478 H   0  0  0  0  0  0  0  0  0  0  0  0
    0.9148    1.9017    0.0210 H   0  0  0  0  0  0  0  0  0  0  0  0
    1.5233    2.1447    1.6613 H   0  0  0  0  0  0  0  0  0  0  0  0
   -0.3117    0.7023    2.5462 H   0  0  0  0  0  0  0  0  0  0  0  0
   -0.9518    0.5193    0.9198 H   0  0  0  0  0  0  0  0  0  0  0  0
   -0.7022    3.1206    2.5005 H   0  0  0  0  0  0  0  0  0  0  0  0
   -2.1833    2.2120    2.2295 H   0  0  0  0  0  0  0  0  0  0  0  0
   -0.5326    3.7395    0.1763 H   0  0  0  0  0  0  0  0  0  0  0  0
   -2.1377    4.1324    0.7764 H   0  0  0  0  0  0  0  0  0  0  0  0
   -1.4062    1.7407   -0.9636 H   0  0  0  0  0  0  0  0  0  0  0  0
   -2.2155    3.2099   -1.4915 H   0  0  0  0  0  0  0  0  0  0  0  0
   -4.1161    2.6924    0.0471 H   0  0  0  0  0  0  0  0  0  0  0  0
   -3.3360    1.1708    0.4804 H   0  0  0  0  0  0  0  0  0  0  0  0
   -4.1948    1.9532   -2.3335 H   0  0  0  0  0  0  0  0  0  0  0  0
   -5.1050    0.9068   -1.2427 H   0  0  0  0  0  0  0  0  0  0  0  0
   -3.0574   -0.6143   -1.1525 H   0  0  0  0  0  0  0  0  0  0  0  0
   -2.3848    0.3289   -2.4829 H   0  0  0  0  0  0  0  0  0  0  0  0
   -5.0503   -1.1430   -2.5667 H   0  0  0  0  0  0  0  0  0  0  0  0
   -3.5291   -1.7585   -3.2096 H   0  0  0  0  0  0  0  0  0  0  0  0
   -4.9999    0.7330   -4.1883 H   0  0  0  0  0  0  0  0  0  0  0  0
   -4.8482   -0.8030   -5.0358 H   0  0  0  0  0  0  0  0  0  0  0  0
   -3.4224    0.2028   -4.7760 H   0  0  0  0  0  0  0  0  0  0  0  0
    0.2160    0.2209   -1.3434 H   0  0  0  0  0  0  0  0  0  0  0  0
    0.9425   -2.6973   -1.9018 H   0  0  0  0  0  0  0  0  0  0  0  0
   -0.1910   -1.6285   -2.8702 H   0  0  0  0  0  0  0  0  0  0  0  0
  1  2  2  0  0  0  0
  2  3  1  0  0  0  0
  3  4  2  0  0  0  0
  4  5  4  0  0  0  0
  5  6  1  0  0  0  0
  6  7  1  0  0  0  0
  7  8  1  0  0  0  0
  8  9  1  0  0  0  0
  9 10  1  0  0  0  0
 10 11  1  0  0  0  0
 11 12  1  0  0  0  0
 12 13  1  0  0  0  0
 13 14  1  0  0  0  0
 14 15  1  0  0  0  0
  5 16  4  0  0  0  0
 16 17  1  0  0  0  0
 17 18  2  0  0  0  0
  3 19  1  0  0  0  0
 16 19  1  0  0  0  0
  1 20  1  0  0  0  0
  1 21  1  0  0  0  0
  2 22  1  0  0  0  0
  4 23  1  0  0  0  0
  6 24  1  0  0  0  0
  6 25  1  0  0  0  0
  7 26  1  0  0  0  0
  7 27  1  0  0  0  0
  8 28  1  0  0  0  0
  8 29  1  0  0  0  0
  9 30  1  0  0  0  0
  9 31  1  0  0  0  0
 10 32  1  0  0  0  0
 10 33  1  0  0  0  0
 11 34  1  0  0  0  0
 11 35  1  0  0  0  0
 12 36  1  0  0  0  0
 12 37  1  0  0  0  0
 13 38  1  0  0  0  0
 13 39  1  0  0  0  0
 14 40  1  0  0  0  0
 14 41  1  0  0  0  0
 15 42  1  0  0  0  0
 15 43  1  0  0  0  0
 15 44  1  0  0  0  0
 17 45  1  0  0  0  0
 18 46  1  0  0  0  0
 18 47  1  0  0  0  0
M  END
