
 OpenBabel08122213063D

 23 23  0  0  0  0  0  0  0  0999 V2000
    1.0573    0.3275   -0.1209 C   0  0  0  0  0  0  0  0  0  0  0  0
    2.3395   -0.0609   -0.1003 C   0  0  0  0  0  0  0  0  0  0  0  0
    3.0441   -0.6730   -1.2367 C   0  0  0  0  0  0  0  0  0  0  0  0
    2.7348   -0.3495   -2.5655 C   0  0  0  0  0  0  0  0  0  0  0  0
    3.4099   -0.9587   -3.6294 C   0  0  0  0  0  0  0  0  0  0  0  0
    3.0571   -0.6452   -5.0513 C   0  0  0  0  0  0  0  0  0  0  0  0
    4.4186   -1.8839   -3.3455 C   0  0  0  0  0  0  0  0  0  0  0  0
    5.0527   -2.4790   -4.3700 F   0  0  0  0  0  0  0  0  0  0  0  0
    4.7838   -2.2005   -2.0299 C   0  0  0  0  0  0  0  0  0  0  0  0
    5.8255   -3.2139   -1.8090 C   0  0  0  0  0  0  0  0  0  0  0  0
    6.6757   -3.2780   -0.7795 C   0  0  0  0  0  0  0  0  0  0  0  0
    6.6599   -2.3578    0.2073 F   0  0  0  0  0  0  0  0  0  0  0  0
    7.5821   -4.2772   -0.7392 F   0  0  0  0  0  0  0  0  0  0  0  0
    4.0807   -1.5873   -0.9814 C   0  0  0  0  0  0  0  0  0  0  0  0
    0.5995    0.7595    0.7637 H   0  0  0  0  0  0  0  0  0  0  0  0
    0.4235    0.2162   -0.9947 H   0  0  0  0  0  0  0  0  0  0  0  0
    2.9099    0.0514    0.8194 H   0  0  0  0  0  0  0  0  0  0  0  0
    1.9590    0.3824   -2.7802 H   0  0  0  0  0  0  0  0  0  0  0  0
    2.2652    0.1088   -5.1112 H   0  0  0  0  0  0  0  0  0  0  0  0
    2.6989   -1.5474   -5.5576 H   0  0  0  0  0  0  0  0  0  0  0  0
    3.9311   -0.2552   -5.5823 H   0  0  0  0  0  0  0  0  0  0  0  0
    5.9197   -3.9707   -2.5850 H   0  0  0  0  0  0  0  0  0  0  0  0
    4.3200   -1.8373    0.0507 H   0  0  0  0  0  0  0  0  0  0  0  0
  1  2  2  0  0  0  0
  1 15  1  0  0  0  0
  1 16  1  0  0  0  0
  2  3  1  0  0  0  0
  2 17  1  0  0  0  0
  3  4  1  0  0  0  0
  3 14  2  0  0  0  0
  4  5  2  0  0  0  0
  4 18  1  0  0  0  0
  5  6  1  0  0  0  0
  5  7  1  0  0  0  0
  6 19  1  0  0  0  0
  6 20  1  0  0  0  0
  6 21  1  0  0  0  0
  7  8  1  0  0  0  0
  7  9  2  0  0  0  0
  9 10  1  0  0  0  0
  9 14  1  0  0  0  0
 10 11  2  0  0  0  0
 10 22  1  0  0  0  0
 11 12  1  0  0  0  0
 11 13  1  0  0  0  0
 14 23  1  0  0  0  0
M  END
