
  xtb     02032211353D
 xtb: 6.4.1 (23d549d)
 33 34  0     0  0            999 V2000
   -3.8219    2.2606   -0.4138 C   0  0  0  0  0  0  0  0  0  0  0  0
   -2.5364    2.2851   -0.0720 C   0  0  0  0  0  0  0  0  0  0  0  0
   -1.6997    1.1274    0.0776 C   0  0  0  0  0  0  0  0  0  0  0  0
   -0.3702    1.1135    0.4158 C   0  0  0  0  0  0  0  0  0  0  0  0
    0.2002   -0.1707    0.4876 C   0  0  0  0  0  0  0  0  0  0  0  0
    1.6365   -0.4908    0.8129 C   0  0  0  0  0  0  0  0  0  0  0  0
    2.3581   -1.1174   -0.3942 C   0  0  0  0  0  0  0  0  0  0  0  0
    2.6911   -0.0783   -1.4576 C   0  0  0  0  0  0  0  0  0  0  0  0
    3.6091    0.9871   -0.8715 C   0  0  0  0  0  0  0  0  0  0  0  0
    2.8993    1.6902    0.2787 C   0  0  0  0  0  0  0  0  0  0  0  0
    2.4544    0.6927    1.3485 C   0  0  0  0  0  0  0  0  0  0  0  0
   -0.7300   -1.1587    0.2210 C   0  0  0  0  0  0  0  0  0  0  0  0
   -0.5573   -2.5856    0.2715 C   0  0  0  0  0  0  0  0  0  0  0  0
   -1.4448   -3.4753   -0.1667 C   0  0  0  0  0  0  0  0  0  0  0  0
   -2.2893   -0.4859   -0.1593 S   0  0  0  0  0  0  0  0  0  0  0  0
   -4.3999    3.1624   -0.5095 H   0  0  0  0  0  0  0  0  0  0  0  0
   -4.3319    1.3314   -0.6080 H   0  0  0  0  0  0  0  0  0  0  0  0
   -2.0391    3.2283    0.1188 H   0  0  0  0  0  0  0  0  0  0  0  0
    0.1586    2.0246    0.6258 H   0  0  0  0  0  0  0  0  0  0  0  0
    1.6126   -1.2471    1.6100 H   0  0  0  0  0  0  0  0  0  0  0  0
    1.7385   -1.9023   -0.8302 H   0  0  0  0  0  0  0  0  0  0  0  0
    3.2871   -1.5758   -0.0449 H   0  0  0  0  0  0  0  0  0  0  0  0
    1.7697    0.3869   -1.8155 H   0  0  0  0  0  0  0  0  0  0  0  0
    3.1736   -0.5669   -2.3068 H   0  0  0  0  0  0  0  0  0  0  0  0
    3.8840    1.7148   -1.6379 H   0  0  0  0  0  0  0  0  0  0  0  0
    4.5270    0.5170   -0.5101 H   0  0  0  0  0  0  0  0  0  0  0  0
    2.0437    2.2294   -0.1279 H   0  0  0  0  0  0  0  0  0  0  0  0
    3.5647    2.4257    0.7376 H   0  0  0  0  0  0  0  0  0  0  0  0
    1.8850    1.2079    2.1254 H   0  0  0  0  0  0  0  0  0  0  0  0
    3.3518    0.2830    1.8203 H   0  0  0  0  0  0  0  0  0  0  0  0
    0.3663   -2.9276    0.7200 H   0  0  0  0  0  0  0  0  0  0  0  0
   -2.3715   -3.1688   -0.6227 H   0  0  0  0  0  0  0  0  0  0  0  0
   -1.2709   -4.5336   -0.0852 H   0  0  0  0  0  0  0  0  0  0  0  0
  1  2  2  0  0  0  0
  2  3  1  0  0  0  0
  3  4  4  0  0  0  0
  4  5  4  0  0  0  0
  5  6  1  0  0  0  0
  6  7  1  0  0  0  0
  7  8  1  0  0  0  0
  8  9  1  0  0  0  0
  9 10  1  0  0  0  0
  6 11  1  0  0  0  0
 10 11  1  0  0  0  0
  5 12  4  0  0  0  0
 12 13  1  0  0  0  0
 13 14  2  0  0  0  0
  3 15  1  0  0  0  0
 12 15  1  0  0  0  0
  1 16  1  0  0  0  0
  1 17  1  0  0  0  0
  2 18  1  0  0  0  0
  4 19  1  0  0  0  0
  6 20  1  0  0  0  0
  7 21  1  0  0  0  0
  7 22  1  0  0  0  0
  8 23  1  0  0  0  0
  8 24  1  0  0  0  0
  9 25  1  0  0  0  0
  9 26  1  0  0  0  0
 10 27  1  0  0  0  0
 10 28  1  0  0  0  0
 11 29  1  0  0  0  0
 11 30  1  0  0  0  0
 13 31  1  0  0  0  0
 14 32  1  0  0  0  0
 14 33  1  0  0  0  0
M  END
