
  xtb     02032211353D
 xtb: 6.4.1 (23d549d)
 22 22  0     0  0            999 V2000
    1.6243    2.6035    0.4345 C   0  0  0  0  0  0  0  0  0  0  0  0
    0.5552    2.1952   -0.2355 C   0  0  0  0  0  0  0  0  0  0  0  0
   -0.0232    0.8560   -0.1633 C   0  0  0  0  0  0  0  0  0  0  0  0
   -1.4114    0.7293   -0.1364 C   0  0  0  0  0  0  0  0  0  0  0  0
   -2.0088   -0.5110    0.0215 C   0  0  0  0  0  0  0  0  0  0  0  0
   -3.4945   -0.6817    0.0369 C   0  0  0  0  0  0  0  0  0  0  0  0
   -1.1501   -1.6012    0.1555 C   0  0  0  0  0  0  0  0  0  0  0  0
    0.1585   -1.5145    0.0803 N   0  0  0  0  0  0  0  0  0  0  0  0
    0.7381   -0.3281   -0.0947 C   0  0  0  0  0  0  0  0  0  0  0  0
    2.1866   -0.3379   -0.2727 C   0  0  0  0  0  0  0  0  0  0  0  0
    2.9564   -1.3485    0.1106 C   0  0  0  0  0  0  0  0  0  0  0  0
    1.9833    3.6162    0.3592 H   0  0  0  0  0  0  0  0  0  0  0  0
    2.1646    1.9499    1.0987 H   0  0  0  0  0  0  0  0  0  0  0  0
    0.0051    2.8986   -0.8501 H   0  0  0  0  0  0  0  0  0  0  0  0
   -2.0248    1.6177   -0.2162 H   0  0  0  0  0  0  0  0  0  0  0  0
   -3.9899    0.2509    0.2975 H   0  0  0  0  0  0  0  0  0  0  0  0
   -3.7856   -1.4509    0.7492 H   0  0  0  0  0  0  0  0  0  0  0  0
   -3.8437   -0.9892   -0.9495 H   0  0  0  0  0  0  0  0  0  0  0  0
   -1.5433   -2.5978    0.3163 H   0  0  0  0  0  0  0  0  0  0  0  0
    2.6093    0.5296   -0.7612 H   0  0  0  0  0  0  0  0  0  0  0  0
    2.5297   -2.2043    0.6045 H   0  0  0  0  0  0  0  0  0  0  0  0
    4.0203   -1.3496   -0.0548 H   0  0  0  0  0  0  0  0  0  0  0  0
  1  2  2  0  0  0  0
  2  3  1  0  0  0  0
  3  4  4  0  0  0  0
  4  5  4  0  0  0  0
  5  6  1  0  0  0  0
  5  7  4  0  0  0  0
  7  8  4  0  0  0  0
  3  9  4  0  0  0  0
  8  9  4  0  0  0  0
  9 10  1  0  0  0  0
 10 11  2  0  0  0  0
  1 12  1  0  0  0  0
  1 13  1  0  0  0  0
  2 14  1  0  0  0  0
  4 15  1  0  0  0  0
  6 16  1  0  0  0  0
  6 17  1  0  0  0  0
  6 18  1  0  0  0  0
  7 19  1  0  0  0  0
 10 20  1  0  0  0  0
 11 21  1  0  0  0  0
 11 22  1  0  0  0  0
M  END
