
  xtb     02032211353D
 xtb: 6.4.1 (23d549d)
 21 21  0     0  0            999 V2000
    2.8985    1.2388   -0.2881 C   0  0  0  0  0  0  0  0  0  0  0  0
    2.5031    0.1325    0.3249 C   0  0  0  0  0  0  0  0  0  0  0  0
    1.2100   -0.5294    0.1495 C   0  0  0  0  0  0  0  0  0  0  0  0
    1.1805   -1.9213    0.1217 C   0  0  0  0  0  0  0  0  0  0  0  0
   -0.0001   -2.6032   -0.1065 C   0  0  0  0  0  0  0  0  0  0  0  0
   -1.1807   -1.9049   -0.2783 C   0  0  0  0  0  0  0  0  0  0  0  0
   -1.2101   -0.5154   -0.1922 C   0  0  0  0  0  0  0  0  0  0  0  0
   -2.5031    0.1588   -0.3132 C   0  0  0  0  0  0  0  0  0  0  0  0
   -2.8983    1.2112    0.3883 C   0  0  0  0  0  0  0  0  0  0  0  0
   -0.0000    0.1738    0.0073 C   0  0  0  0  0  0  0  0  0  0  0  0
   -0.0000    1.5863    0.0651 C   0  0  0  0  0  0  0  0  0  0  0  0
    0.0002    2.7332    0.1118 N   0  0  0  0  0  0  0  0  0  0  0  0
    3.8808    1.6473   -0.1232 H   0  0  0  0  0  0  0  0  0  0  0  0
    2.2712    1.7723   -0.9810 H   0  0  0  0  0  0  0  0  0  0  0  0
    3.1907   -0.3947    0.9759 H   0  0  0  0  0  0  0  0  0  0  0  0
    2.1037   -2.4667    0.2529 H   0  0  0  0  0  0  0  0  0  0  0  0
   -0.0001   -3.6822   -0.1505 H   0  0  0  0  0  0  0  0  0  0  0  0
   -2.1040   -2.4376   -0.4535 H   0  0  0  0  0  0  0  0  0  0  0  0
   -3.1906   -0.3134   -1.0052 H   0  0  0  0  0  0  0  0  0  0  0  0
   -2.2710    1.6861    1.1223 H   0  0  0  0  0  0  0  0  0  0  0  0
   -3.8806    1.6321    0.2576 H   0  0  0  0  0  0  0  0  0  0  0  0
  1  2  2  0  0  0  0
  2  3  1  0  0  0  0
  3  4  4  0  0  0  0
  4  5  4  0  0  0  0
  5  6  4  0  0  0  0
  6  7  4  0  0  0  0
  7  8  1  0  0  0  0
  8  9  2  0  0  0  0
  3 10  4  0  0  0  0
  7 10  4  0  0  0  0
 10 11  1  0  0  0  0
 11 12  3  0  0  0  0
  1 13  1  0  0  0  0
  1 14  1  0  0  0  0
  2 15  1  0  0  0  0
  4 16  1  0  0  0  0
  5 17  1  0  0  0  0
  6 18  1  0  0  0  0
  8 19  1  0  0  0  0
  9 20  1  0  0  0  0
  9 21  1  0  0  0  0
M  END
