
  xtb     02032211353D
 xtb: 6.4.1 (23d549d)
 30 31  0     0  0            999 V2000
   -5.8457   -0.8111    0.2113 C   0  0  0  0  0  0  0  0  0  0  0  0
   -5.0046    0.1661   -0.1068 C   0  0  0  0  0  0  0  0  0  0  0  0
   -3.5497    0.1165   -0.0609 C   0  0  0  0  0  0  0  0  0  0  0  0
   -2.8213    1.2396   -0.4596 C   0  0  0  0  0  0  0  0  0  0  0  0
   -1.4428    1.2456   -0.4337 C   0  0  0  0  0  0  0  0  0  0  0  0
   -0.7334    0.1221   -0.0122 C   0  0  0  0  0  0  0  0  0  0  0  0
    0.7334    0.1221    0.0132 C   0  0  0  0  0  0  0  0  0  0  0  0
    1.4429    1.2461    0.4333 C   0  0  0  0  0  0  0  0  0  0  0  0
    2.8215    1.2401    0.4584 C   0  0  0  0  0  0  0  0  0  0  0  0
    3.5497    0.1167    0.0605 C   0  0  0  0  0  0  0  0  0  0  0  0
    5.0047    0.1666    0.1053 C   0  0  0  0  0  0  0  0  0  0  0  0
    5.8456   -0.8111   -0.2120 C   0  0  0  0  0  0  0  0  0  0  0  0
    2.8350   -1.0051   -0.3637 C   0  0  0  0  0  0  0  0  0  0  0  0
    1.4566   -1.0027   -0.3832 C   0  0  0  0  0  0  0  0  0  0  0  0
   -1.4568   -1.0022    0.3853 C   0  0  0  0  0  0  0  0  0  0  0  0
   -2.8351   -1.0047    0.3650 C   0  0  0  0  0  0  0  0  0  0  0  0
   -6.9116   -0.6758    0.1428 H   0  0  0  0  0  0  0  0  0  0  0  0
   -5.5165   -1.7786    0.5494 H   0  0  0  0  0  0  0  0  0  0  0  0
   -5.4093    1.1140   -0.4420 H   0  0  0  0  0  0  0  0  0  0  0  0
   -3.3510    2.1197   -0.7976 H   0  0  0  0  0  0  0  0  0  0  0  0
   -0.9048    2.1221   -0.7650 H   0  0  0  0  0  0  0  0  0  0  0  0
    0.9050    2.1229    0.7638 H   0  0  0  0  0  0  0  0  0  0  0  0
    3.3513    2.1206    0.7952 H   0  0  0  0  0  0  0  0  0  0  0  0
    5.4096    1.1150    0.4389 H   0  0  0  0  0  0  0  0  0  0  0  0
    5.5162   -1.7792   -0.5482 H   0  0  0  0  0  0  0  0  0  0  0  0
    6.9115   -0.6755   -0.1446 H   0  0  0  0  0  0  0  0  0  0  0  0
    3.3631   -1.8893   -0.6856 H   0  0  0  0  0  0  0  0  0  0  0  0
    0.9270   -1.8773   -0.7327 H   0  0  0  0  0  0  0  0  0  0  0  0
   -0.9272   -1.8764    0.7361 H   0  0  0  0  0  0  0  0  0  0  0  0
   -3.3633   -1.8886    0.6877 H   0  0  0  0  0  0  0  0  0  0  0  0
  1  2  2  0  0  0  0
  2  3  1  0  0  0  0
  3  4  4  0  0  0  0
  4  5  4  0  0  0  0
  5  6  4  0  0  0  0
  6  7  1  0  0  0  0
  7  8  4  0  0  0  0
  8  9  4  0  0  0  0
  9 10  4  0  0  0  0
 10 11  1  0  0  0  0
 11 12  2  0  0  0  0
 10 13  4  0  0  0  0
  7 14  4  0  0  0  0
 13 14  4  0  0  0  0
  6 15  4  0  0  0  0
  3 16  4  0  0  0  0
 15 16  4  0  0  0  0
  1 17  1  0  0  0  0
  1 18  1  0  0  0  0
  2 19  1  0  0  0  0
  4 20  1  0  0  0  0
  5 21  1  0  0  0  0
  8 22  1  0  0  0  0
  9 23  1  0  0  0  0
 11 24  1  0  0  0  0
 12 25  1  0  0  0  0
 12 26  1  0  0  0  0
 13 27  1  0  0  0  0
 14 28  1  0  0  0  0
 15 29  1  0  0  0  0
 16 30  1  0  0  0  0
M  END
