
  xtb     02032211353D
 xtb: 6.4.1 (23d549d)
 29 29  0     0  0            999 V2000
    3.4976    1.3251   -0.4608 C   0  0  0  0  0  0  0  0  0  0  0  0
    2.3630    1.5286    0.1945 C   0  0  0  0  0  0  0  0  0  0  0  0
    1.1871    0.6811    0.1328 C   0  0  0  0  0  0  0  0  0  0  0  0
   -0.1122    1.1516    0.2000 C   0  0  0  0  0  0  0  0  0  0  0  0
   -0.9399    0.1061    0.0119 N   0  0  0  0  0  0  0  0  0  0  0  0
   -2.3945    0.1324   -0.0105 C   0  0  0  0  0  0  0  0  0  0  0  0
   -2.8541    1.0423   -1.1545 C   0  0  0  0  0  0  0  0  0  0  0  0
   -2.8986   -1.2907   -0.2368 C   0  0  0  0  0  0  0  0  0  0  0  0
   -2.9000    0.6623    1.3353 C   0  0  0  0  0  0  0  0  0  0  0  0
   -0.2620   -1.0185   -0.1606 N   0  0  0  0  0  0  0  0  0  0  0  0
    1.0300   -0.7169   -0.0853 C   0  0  0  0  0  0  0  0  0  0  0  0
    1.9878   -1.8031   -0.1525 C   0  0  0  0  0  0  0  0  0  0  0  0
    3.1920   -1.8144    0.4029 C   0  0  0  0  0  0  0  0  0  0  0  0
    4.3193    2.0177   -0.3920 H   0  0  0  0  0  0  0  0  0  0  0  0
    3.6431    0.4638   -1.0901 H   0  0  0  0  0  0  0  0  0  0  0  0
    2.2385    2.4262    0.7902 H   0  0  0  0  0  0  0  0  0  0  0  0
   -0.4680    2.1517    0.3470 H   0  0  0  0  0  0  0  0  0  0  0  0
   -2.4560    0.6842   -2.1012 H   0  0  0  0  0  0  0  0  0  0  0  0
   -2.5148    2.0640   -1.0020 H   0  0  0  0  0  0  0  0  0  0  0  0
   -3.9393    1.0456   -1.2128 H   0  0  0  0  0  0  0  0  0  0  0  0
   -2.5206   -1.6774   -1.1785 H   0  0  0  0  0  0  0  0  0  0  0  0
   -3.9849   -1.2987   -0.2567 H   0  0  0  0  0  0  0  0  0  0  0  0
   -2.5503   -1.9432    0.5583 H   0  0  0  0  0  0  0  0  0  0  0  0
   -2.5649    1.6826    1.5051 H   0  0  0  0  0  0  0  0  0  0  0  0
   -2.5314    0.0380    2.1462 H   0  0  0  0  0  0  0  0  0  0  0  0
   -3.9865    0.6502    1.3539 H   0  0  0  0  0  0  0  0  0  0  0  0
    1.6062   -2.6838   -0.6530 H   0  0  0  0  0  0  0  0  0  0  0  0
    3.5807   -0.9688    0.9442 H   0  0  0  0  0  0  0  0  0  0  0  0
    3.8301   -2.6794    0.3386 H   0  0  0  0  0  0  0  0  0  0  0  0
  1  2  2  0  0  0  0
  2  3  1  0  0  0  0
  3  4  4  0  0  0  0
  4  5  4  0  0  0  0
  5  6  1  0  0  0  0
  6  7  1  0  0  0  0
  6  8  1  0  0  0  0
  6  9  1  0  0  0  0
  5 10  4  0  0  0  0
  3 11  4  0  0  0  0
 10 11  4  0  0  0  0
 11 12  1  0  0  0  0
 12 13  2  0  0  0  0
  1 14  1  0  0  0  0
  1 15  1  0  0  0  0
  2 16  1  0  0  0  0
  4 17  1  0  0  0  0
  7 18  1  0  0  0  0
  7 19  1  0  0  0  0
  7 20  1  0  0  0  0
  8 21  1  0  0  0  0
  8 22  1  0  0  0  0
  8 23  1  0  0  0  0
  9 24  1  0  0  0  0
  9 25  1  0  0  0  0
  9 26  1  0  0  0  0
 12 27  1  0  0  0  0
 13 28  1  0  0  0  0
 13 29  1  0  0  0  0
M  END
