 xtb: 6.5.0 (unknown)
          08122213093D

 27  0  0     0  0            999 V2000
   -3.1507    2.2331    1.0057 C   0  0  0  0  0  0  0  0  0  0  0  0
   -3.0436    1.1999    0.1813 C   0  0  0  0  0  0  0  0  0  0  0  0
   -1.8746    0.3268    0.0586 C   0  0  0  0  0  0  0  0  0  0  0  0
   -2.0924   -1.0127   -0.2600 C   0  0  0  0  0  0  0  0  0  0  0  0
   -1.0327   -1.8967   -0.3379 C   0  0  0  0  0  0  0  0  0  0  0  0
   -1.3345   -3.5548   -0.7186 Cl  0  0  0  0  0  0  0  0  0  0  0  0
    0.2653   -1.4776   -0.1128 C   0  0  0  0  0  0  0  0  0  0  0  0
    0.5159   -0.1371    0.1755 C   0  0  0  0  0  0  0  0  0  0  0  0
    1.8523    0.3841    0.4161 C   0  0  0  0  0  0  0  0  0  0  0  0
    3.0154   -0.2272    0.2552 C   0  0  0  0  0  0  0  0  0  0  0  0
    3.2394   -1.4635   -0.1719 F   0  0  0  0  0  0  0  0  0  0  0  0
    4.1836    0.3592    0.5058 F   0  0  0  0  0  0  0  0  0  0  0  0
   -0.5590    0.7677    0.2572 C   0  0  0  0  0  0  0  0  0  0  0  0
   -0.2823    2.0883    0.5306 O   0  0  0  0  0  0  0  0  0  0  0  0
   -0.3122    2.9413   -0.6085 C   0  0  0  0  0  0  0  0  0  0  0  0
   -0.0653    4.3650   -0.1407 C   0  0  0  0  0  0  0  0  0  0  0  0
   -4.0569    2.8125    1.0610 H   0  0  0  0  0  0  0  0  0  0  0  0
   -2.3448    2.5276    1.6549 H   0  0  0  0  0  0  0  0  0  0  0  0
   -3.8881    0.9088   -0.4316 H   0  0  0  0  0  0  0  0  0  0  0  0
   -3.0993   -1.3634   -0.4264 H   0  0  0  0  0  0  0  0  0  0  0  0
    1.0707   -2.1901   -0.1666 H   0  0  0  0  0  0  0  0  0  0  0  0
    1.8980    1.4038    0.7703 H   0  0  0  0  0  0  0  0  0  0  0  0
   -1.2863    2.8639   -1.1094 H   0  0  0  0  0  0  0  0  0  0  0  0
    0.4673    2.6278   -1.3189 H   0  0  0  0  0  0  0  0  0  0  0  0
   -0.8512    4.6734    0.5430 H   0  0  0  0  0  0  0  0  0  0  0  0
   -0.0527    5.0352   -0.9952 H   0  0  0  0  0  0  0  0  0  0  0  0
    0.8884    4.4283    0.3760 H   0  0  0  0  0  0  0  0  0  0  0  0
M  END
