20

C          1.09908        0.33398        0.52661
C          2.12340       -0.23350       -0.12470
C          2.89010        0.40190       -1.23750
C          3.94990       -0.25160       -1.89430
C          4.63790        0.38120       -2.92640
C          4.29040        1.67080       -3.32490
C          3.23450        2.35820       -2.69190
C          2.80560        3.74370       -3.06930
C          2.26643        4.68105       -2.26915
F          2.02015        4.48776       -0.95029
F          1.93993        5.88781       -2.80206
C          2.54150        1.70680       -1.64620
F          1.51910        2.34770       -1.01860
H          0.60630       -0.21303        1.32411
H          0.72878        1.32474        0.30096
H          2.40715       -1.23267        0.19326
H          4.26100       -1.24890       -1.62540
H          5.45080       -0.13380       -3.42370
H          4.86140        2.09730       -4.12910
H          2.93719        4.03769       -4.10692
20

C          1.01662       -0.97337       -0.27669
C          2.12340       -0.23350       -0.12470
C          2.89010        0.40190       -1.23750
C          3.94990       -0.25160       -1.89430
C          4.63790        0.38120       -2.92640
C          4.29040        1.67080       -3.32490
C          3.23450        2.35820       -2.69190
C          2.80560        3.74370       -3.06930
C          3.25451        4.90666       -2.56377
F          4.19690        4.98660       -1.59273
F          2.73734        6.07016       -3.03884
C          2.54150        1.70680       -1.64620
F          1.51910        2.34770       -1.01860
H          0.53150       -1.39233        0.59920
H          0.56896       -1.17991       -1.23929
H          2.47758       -0.09300        0.89253
H          4.26100       -1.24890       -1.62540
H          5.45080       -0.13380       -3.42370
H          4.86140        2.09730       -4.12910
H          2.04228        3.83415       -3.83713
20

C          2.43204       -0.13766        1.17569
C          2.12340       -0.23350       -0.12470
C          2.89010        0.40190       -1.23750
C          3.94990       -0.25160       -1.89430
C          4.63790        0.38120       -2.92640
C          4.29040        1.67080       -3.32490
C          3.23450        2.35820       -2.69190
C          2.80560        3.74370       -3.06930
C          1.87839        4.09538       -3.97824
F          1.17679        3.20082       -4.71643
F          1.62849        5.41564       -4.18151
C          2.54150        1.70680       -1.64620
F          1.51910        2.34770       -1.01860
H          1.80883       -0.63893        1.90944
H          3.28305        0.41913        1.54371
H          1.24560       -0.82313       -0.37318
H          4.26100       -1.24890       -1.62540
H          5.45080       -0.13380       -3.42370
H          4.86140        2.09730       -4.12910
H          3.29376        4.56960       -2.55942
20

C          2.43204       -0.13766        1.17569
C          2.12340       -0.23350       -0.12470
C          2.89010        0.40190       -1.23750
C          3.94990       -0.25160       -1.89430
C          4.63790        0.38120       -2.92640
C          4.29040        1.67080       -3.32490
C          3.23450        2.35820       -2.69190
C          2.80560        3.74370       -3.06930
C          3.25451        4.90666       -2.56377
F          4.19690        4.98660       -1.59273
F          2.73734        6.07016       -3.03884
C          2.54150        1.70680       -1.64620
F          1.51910        2.34770       -1.01860
H          1.80883       -0.63893        1.90944
H          3.28305        0.41913        1.54371
H          1.24560       -0.82313       -0.37318
H          4.26100       -1.24890       -1.62540
H          5.45080       -0.13380       -3.42370
H          4.86140        2.09730       -4.12910
H          2.04228        3.83415       -3.83713
20

C          1.01662       -0.97337       -0.27669
C          2.12340       -0.23350       -0.12470
C          2.89010        0.40190       -1.23750
C          3.94990       -0.25160       -1.89430
C          4.63790        0.38120       -2.92640
C          4.29040        1.67080       -3.32490
C          3.23450        2.35820       -2.69190
C          2.80560        3.74370       -3.06930
C          1.87839        4.09538       -3.97824
F          1.17679        3.20082       -4.71643
F          1.62849        5.41564       -4.18151
C          2.54150        1.70680       -1.64620
F          1.51910        2.34770       -1.01860
H          0.53150       -1.39233        0.59920
H          0.56896       -1.17991       -1.23929
H          2.47758       -0.09300        0.89253
H          4.26100       -1.24890       -1.62540
H          5.45080       -0.13380       -3.42370
H          4.86140        2.09730       -4.12910
H          3.29376        4.56960       -2.55942
20

C          2.61742       -1.13676        0.73293
C          2.12340       -0.23350       -0.12470
C          2.89010        0.40190       -1.23750
C          3.94990       -0.25160       -1.89430
C          4.63790        0.38120       -2.92640
C          4.29040        1.67080       -3.32490
C          3.23450        2.35820       -2.69190
C          2.80560        3.74370       -3.06930
C          1.87839        4.09538       -3.97824
F          1.17679        3.20082       -4.71643
F          1.62849        5.41564       -4.18151
C          2.54150        1.70680       -1.64620
F          1.51910        2.34770       -1.01860
H          1.97578       -1.54026        1.50981
H          3.63701       -1.49536        0.69442
H          1.08307        0.04753        0.01198
H          4.26100       -1.24890       -1.62540
H          5.45080       -0.13380       -3.42370
H          4.86140        2.09730       -4.12910
H          3.29376        4.56960       -2.55942
20

C          1.91726       -1.55016        0.01449
C          2.12340       -0.23350       -0.12470
C          2.89010        0.40190       -1.23750
C          3.94990       -0.25160       -1.89430
C          4.63790        0.38120       -2.92640
C          4.29040        1.67080       -3.32490
C          3.23450        2.35820       -2.69190
C          2.80560        3.74370       -3.06930
C          1.87839        4.09538       -3.97824
F          1.17679        3.20082       -4.71643
F          1.62849        5.41564       -4.18151
C          2.54150        1.70680       -1.64620
F          1.51910        2.34770       -1.01860
H          1.34393       -1.91294        0.86168
H          2.29445       -2.28635       -0.68223
H          1.69249        0.40870        0.63809
H          4.26100       -1.24890       -1.62540
H          5.45080       -0.13380       -3.42370
H          4.86140        2.09730       -4.12910
H          3.29376        4.56960       -2.55942
20

C          2.43204       -0.13766        1.17569
C          2.12340       -0.23350       -0.12470
C          2.89010        0.40190       -1.23750
C          3.94990       -0.25160       -1.89430
C          4.63790        0.38120       -2.92640
C          4.29040        1.67080       -3.32490
C          3.23450        2.35820       -2.69190
C          2.80560        3.74370       -3.06930
C          1.57103        4.27107       -2.98393
F          0.49399        3.58534       -2.52880
F          1.37959        5.55706       -3.37949
C          2.54150        1.70680       -1.64620
F          1.51910        2.34770       -1.01860
H          1.80883       -0.63893        1.90944
H          3.28305        0.41913        1.54371
H          1.24560       -0.82313       -0.37318
H          4.26100       -1.24890       -1.62540
H          5.45080       -0.13380       -3.42370
H          4.86140        2.09730       -4.12910
H          3.56960        4.40934       -3.46124
20

C          1.01662       -0.97337       -0.27669
C          2.12340       -0.23350       -0.12470
C          2.89010        0.40190       -1.23750
C          3.94990       -0.25160       -1.89430
C          4.63790        0.38120       -2.92640
C          4.29040        1.67080       -3.32490
C          3.23450        2.35820       -2.69190
C          2.80560        3.74370       -3.06930
C          1.57103        4.27107       -2.98393
F          0.49399        3.58534       -2.52880
F          1.37959        5.55706       -3.37949
C          2.54150        1.70680       -1.64620
F          1.51910        2.34770       -1.01860
H          0.53150       -1.39233        0.59920
H          0.56896       -1.17991       -1.23929
H          2.47758       -0.09300        0.89253
H          4.26100       -1.24890       -1.62540
H          5.45080       -0.13380       -3.42370
H          4.86140        2.09730       -4.12910
H          3.56960        4.40934       -3.46124
20

C          2.43204       -0.13766        1.17569
C          2.12340       -0.23350       -0.12470
C          2.89010        0.40190       -1.23750
C          3.94990       -0.25160       -1.89430
C          4.63790        0.38120       -2.92640
C          4.29040        1.67080       -3.32490
C          3.23450        2.35820       -2.69190
C          2.80560        3.74370       -3.06930
C          3.56849        4.72718       -3.57953
F          4.89443        4.59379       -3.82755
F          2.99161        5.92569       -3.85816
C          2.54150        1.70680       -1.64620
F          1.51910        2.34770       -1.01860
H          1.80883       -0.63893        1.90944
H          3.28305        0.41913        1.54371
H          1.24560       -0.82313       -0.37318
H          4.26100       -1.24890       -1.62540
H          5.45080       -0.13380       -3.42370
H          4.86140        2.09730       -4.12910
H          1.76049        3.99787       -2.91585
