
 OpenBabel02032211103D

 25 25  0  0  0  0  0  0  0  0999 V2000
    1.1390   -0.1307    0.0801 C   0  0  0  0  0  0  0  0  0  0  0  0
    2.4590    0.1003    0.0124 C   0  0  0  0  0  0  0  0  0  0  0  0
    3.2012    0.9421    0.9568 C   0  0  0  0  0  0  0  0  0  0  0  0
    2.8139    1.0792    2.2927 C   0  0  0  0  0  0  0  0  0  0  0  0
    3.5488    1.8383    3.2130 C   0  0  0  0  0  0  0  0  0  0  0  0
    3.0108    1.9736    4.5925 C   0  0  0  0  0  0  0  0  0  0  0  0
    2.2736    1.0632    5.2526 C   0  0  0  0  0  0  0  0  0  0  0  0
    4.7360    2.4941    2.7702 C   0  0  0  0  0  0  0  0  0  0  0  0
    5.4216    3.3762    3.6285 N   0  0  0  0  0  0  0  0  0  0  0  0
    5.1197    2.3883    1.4095 C   0  0  0  0  0  0  0  0  0  0  0  0
    6.3651    3.0300    0.8412 C   0  0  0  0  0  0  0  0  0  0  0  0
    7.1045    3.7468    1.7378 F   0  0  0  0  0  0  0  0  0  0  0  0
    7.2287    2.1025    0.3317 F   0  0  0  0  0  0  0  0  0  0  0  0
    6.1033    3.8853   -0.1883 F   0  0  0  0  0  0  0  0  0  0  0  0
    4.3604    1.5919    0.5319 C   0  0  0  0  0  0  0  0  0  0  0  0
    0.6553   -0.7728   -0.6484 H   0  0  0  0  0  0  0  0  0  0  0  0
    0.5061    0.3111    0.8414 H   0  0  0  0  0  0  0  0  0  0  0  0
    3.0350   -0.3546   -0.7897 H   0  0  0  0  0  0  0  0  0  0  0  0
    1.9022    0.5855    2.6238 H   0  0  0  0  0  0  0  0  0  0  0  0
    3.2124    2.9193    5.0869 H   0  0  0  0  0  0  0  0  0  0  0  0
    2.0025    0.0918    4.8514 H   0  0  0  0  0  0  0  0  0  0  0  0
    1.9058    1.2821    6.2544 H   0  0  0  0  0  0  0  0  0  0  0  0
    5.4775    3.0289    4.5877 H   0  0  0  0  0  0  0  0  0  0  0  0
    6.3344    3.6895    3.2985 H   0  0  0  0  0  0  0  0  0  0  0  0
    4.6859    1.4876   -0.5065 H   0  0  0  0  0  0  0  0  0  0  0  0
  1  2  2  0  0  0  0
  1 16  1  0  0  0  0
  1 17  1  0  0  0  0
  2  3  1  0  0  0  0
  2 18  1  0  0  0  0
  3  4  1  0  0  0  0
  3 15  2  0  0  0  0
  4  5  2  0  0  0  0
  4 19  1  0  0  0  0
  5  6  1  0  0  0  0
  5  8  1  0  0  0  0
  6  7  2  0  0  0  0
  6 20  1  0  0  0  0
  7 21  1  0  0  0  0
  7 22  1  0  0  0  0
  8  9  1  0  0  0  0
  8 10  2  0  0  0  0
  9 23  1  0  0  0  0
  9 24  1  0  0  0  0
 10 11  1  0  0  0  0
 10 15  1  0  0  0  0
 11 12  1  0  0  0  0
 11 13  1  0  0  0  0
 11 14  1  0  0  0  0
 15 25  1  0  0  0  0
M  END
