
 OpenBabel02012213493D

 15 15  0  0  0  0  0  0  0  0999 V2000
   -2.6603    0.2691   -0.0231 C   0  0  0  0  0  0  0  0  0  0  0  0
   -1.2320   -0.1538   -0.0078 C   0  0  0  0  0  0  0  0  0  0  0  0
   -0.7172   -1.4336    0.0016 C   0  0  0  0  0  0  0  0  0  0  0  0
    0.7072   -1.4413   -0.0002 C   0  0  0  0  0  0  0  0  0  0  0  0
    1.2367   -0.1681   -0.0023 C   0  0  0  0  0  0  0  0  0  0  0  0
    2.6698    0.2387   -0.0037 C   0  0  0  0  0  0  0  0  0  0  0  0
    0.0091    1.0237   -0.0041 S   0  0  0  0  0  0  0  0  0  0  0  0
   -3.3251   -0.6009    0.0002 H   0  0  0  0  0  0  0  0  0  0  0  0
   -2.8859    0.8376   -0.9312 H   0  0  0  0  0  0  0  0  0  0  0  0
   -2.8934    0.8912    0.8472 H   0  0  0  0  0  0  0  0  0  0  0  0
   -1.3320   -2.3251    0.0046 H   0  0  0  0  0  0  0  0  0  0  0  0
    1.3119   -2.3401   -0.0010 H   0  0  0  0  0  0  0  0  0  0  0  0
    3.3242   -0.6397   -0.0161 H   0  0  0  0  0  0  0  0  0  0  0  0
    2.9095    0.8211    0.8918 H   0  0  0  0  0  0  0  0  0  0  0  0
    2.9032    0.8412   -0.8874 H   0  0  0  0  0  0  0  0  0  0  0  0
  1  2  1  0  0  0  0
  1  8  1  0  0  0  0
  1  9  1  0  0  0  0
  1 10  1  0  0  0  0
  2  3  2  0  0  0  0
  2  7  1  0  0  0  0
  3  4  1  0  0  0  0
  3 11  1  0  0  0  0
  4  5  2  0  0  0  0
  4 12  1  0  0  0  0
  5  6  1  0  0  0  0
  5  7  1  0  0  0  0
  6 13  1  0  0  0  0
  6 14  1  0  0  0  0
  6 15  1  0  0  0  0
M  END
