
  xtb     02012213493D
 xtb: 6.4.1 (23d549d)
 15 15  0     0  0            999 V2000
   -2.6752    0.2438   -0.0220 c   0  0  0  0  0  0  0  0  0  0  0  0
   -1.2437   -0.1594   -0.0150 c   0  0  0  0  0  0  0  0  0  0  0  0
   -0.7108   -1.4066   -0.0057 c   0  0  0  0  0  0  0  0  0  0  0  0
    0.7058   -1.4140   -0.0012 c   0  0  0  0  0  0  0  0  0  0  0  0
    1.2517   -0.1724   -0.0072 c   0  0  0  0  0  0  0  0  0  0  0  0
    2.6873    0.2158   -0.0051 c   0  0  0  0  0  0  0  0  0  0  0  0
    0.0103    1.0465   -0.0186 s   0  0  0  0  0  0  0  0  0  0  0  0
   -3.3085   -0.6406   -0.0180 h   0  0  0  0  0  0  0  0  0  0  0  0
   -2.9048    0.8366   -0.9075 h   0  0  0  0  0  0  0  0  0  0  0  0
   -2.9101    0.8485    0.8540 h   0  0  0  0  0  0  0  0  0  0  0  0
   -1.3076   -2.3019   -0.0020 h   0  0  0  0  0  0  0  0  0  0  0  0
    1.2932   -2.3155    0.0062 h   0  0  0  0  0  0  0  0  0  0  0  0
    3.3114   -0.6751    0.0018 h   0  0  0  0  0  0  0  0  0  0  0  0
    2.9232    0.8171    0.8731 h   0  0  0  0  0  0  0  0  0  0  0  0
    2.9285    0.8072   -0.8885 h   0  0  0  0  0  0  0  0  0  0  0  0
  1  2  1  0  0  0  0
  2  3  2  0  0  0  0
  3  4  4  0  0  0  0
  4  5  2  0  0  0  0
  5  6  1  0  0  0  0
  2  7  1  0  0  0  0
  5  7  1  0  0  0  0
  1  8  1  0  0  0  0
  1  9  1  0  0  0  0
  1 10  1  0  0  0  0
  3 11  1  0  0  0  0
  4 12  1  0  0  0  0
  6 13  1  0  0  0  0
  6 14  1  0  0  0  0
  6 15  1  0  0  0  0
M  END
