
  xtb     02032211353D
 xtb: 6.4.1 (23d549d)
 27 27  0     0  0            999 V2000
   -2.8976   -1.3769    0.9397 C   0  0  0  0  0  0  0  0  0  0  0  0
   -2.5529   -0.4830    0.0239 C   0  0  0  0  0  0  0  0  0  0  0  0
   -1.2112    0.0974   -0.0958 C   0  0  0  0  0  0  0  0  0  0  0  0
   -1.1343    1.4849   -0.2250 C   0  0  0  0  0  0  0  0  0  0  0  0
    0.0727    2.1588   -0.1967 C   0  0  0  0  0  0  0  0  0  0  0  0
    0.1373    3.6515   -0.3239 C   0  0  0  0  0  0  0  0  0  0  0  0
    1.2342    1.4186   -0.0292 C   0  0  0  0  0  0  0  0  0  0  0  0
    1.2125    0.0321    0.0573 C   0  0  0  0  0  0  0  0  0  0  0  0
    2.4351   -0.7538    0.1872 C   0  0  0  0  0  0  0  0  0  0  0  0
    3.6151   -0.3026    0.5931 C   0  0  0  0  0  0  0  0  0  0  0  0
   -0.0253   -0.6402   -0.0106 C   0  0  0  0  0  0  0  0  0  0  0  0
    0.0299   -2.0114    0.0116 O   0  0  0  0  0  0  0  0  0  0  0  0
   -0.8167   -2.7431   -0.8458 C   0  0  0  0  0  0  0  0  0  0  0  0
   -3.9093   -1.7355    1.0308 H   0  0  0  0  0  0  0  0  0  0  0  0
   -2.1819   -1.7688    1.6438 H   0  0  0  0  0  0  0  0  0  0  0  0
   -3.3044   -0.0640   -0.6352 H   0  0  0  0  0  0  0  0  0  0  0  0
   -2.0567    2.0415   -0.3186 H   0  0  0  0  0  0  0  0  0  0  0  0
   -0.8423    4.0660   -0.5478 H   0  0  0  0  0  0  0  0  0  0  0  0
    0.8277    3.9370   -1.1163 H   0  0  0  0  0  0  0  0  0  0  0  0
    0.4953    4.0943    0.6053 H   0  0  0  0  0  0  0  0  0  0  0  0
    2.1831    1.9320   -0.0017 H   0  0  0  0  0  0  0  0  0  0  0  0
    2.3207   -1.8016   -0.0550 H   0  0  0  0  0  0  0  0  0  0  0  0
    3.7788    0.7205    0.8870 H   0  0  0  0  0  0  0  0  0  0  0  0
    4.4699   -0.9538    0.6593 H   0  0  0  0  0  0  0  0  0  0  0  0
   -0.2223   -3.5735   -1.2338 H   0  0  0  0  0  0  0  0  0  0  0  0
   -1.1731   -2.1335   -1.6792 H   0  0  0  0  0  0  0  0  0  0  0  0
   -1.6807   -3.1427   -0.3067 H   0  0  0  0  0  0  0  0  0  0  0  0
  1  2  2  0  0  0  0
  2  3  1  0  0  0  0
  3  4  4  0  0  0  0
  4  5  4  0  0  0  0
  5  6  1  0  0  0  0
  5  7  4  0  0  0  0
  7  8  4  0  0  0  0
  8  9  1  0  0  0  0
  9 10  2  0  0  0  0
  3 11  4  0  0  0  0
  8 11  4  0  0  0  0
 11 12  1  0  0  0  0
 12 13  1  0  0  0  0
  1 14  1  0  0  0  0
  1 15  1  0  0  0  0
  2 16  1  0  0  0  0
  4 17  1  0  0  0  0
  6 18  1  0  0  0  0
  6 19  1  0  0  0  0
  6 20  1  0  0  0  0
  7 21  1  0  0  0  0
  9 22  1  0  0  0  0
 10 23  1  0  0  0  0
 10 24  1  0  0  0  0
 13 25  1  0  0  0  0
 13 26  1  0  0  0  0
 13 27  1  0  0  0  0
M  END
