
 OpenBabel02012213533D

 25 25  0  0  0  0  0  0  0  0999 V2000
    1.2106   -1.8158    1.8801 C   0  0  0  0  0  0  0  0  0  0  0  0
    2.5685   -1.6198    1.7467 O   0  0  0  0  0  0  0  0  0  0  0  0
    3.1276   -0.5320    1.1548 C   0  0  0  0  0  0  0  0  0  0  0  0
    2.4156    0.3461    0.6889 O   0  0  0  0  0  0  0  0  0  0  0  0
    4.6098   -0.4422    1.0947 C   0  0  0  0  0  0  0  0  0  0  0  0
    5.3085   -1.4753    1.6372 N   0  0  0  0  0  0  0  0  0  0  0  0
    6.6648   -1.5432    1.6641 C   0  0  0  0  0  0  0  0  0  0  0  0
    7.2576   -2.6840    2.2662 N   0  0  0  0  0  0  0  0  0  0  0  0
    7.4184   -0.4861    1.0997 C   0  0  0  0  0  0  0  0  0  0  0  0
    8.9260   -0.4346    1.0620 C   0  0  0  0  0  0  0  0  0  0  0  0
    6.7261    0.5936    0.5337 C   0  0  0  0  0  0  0  0  0  0  0  0
    5.3238    0.6380    0.5194 C   0  0  0  0  0  0  0  0  0  0  0  0
    4.6429    1.8297   -0.1039 C   0  0  0  0  0  0  0  0  0  0  0  0
    1.0330   -2.7797    2.3999 H   0  0  0  0  0  0  0  0  0  0  0  0
    0.7287   -1.8537    0.8799 H   0  0  0  0  0  0  0  0  0  0  0  0
    0.7639   -0.9966    2.4833 H   0  0  0  0  0  0  0  0  0  0  0  0
    6.6514   -3.4187    2.6593 H   0  0  0  0  0  0  0  0  0  0  0  0
    8.2711   -2.8248    2.3395 H   0  0  0  0  0  0  0  0  0  0  0  0
    9.4306   -1.3034    1.5144 H   0  0  0  0  0  0  0  0  0  0  0  0
    9.2755    0.4699    1.6032 H   0  0  0  0  0  0  0  0  0  0  0  0
    9.2638   -0.3699    0.0060 H   0  0  0  0  0  0  0  0  0  0  0  0
    7.2919    1.4100    0.0987 H   0  0  0  0  0  0  0  0  0  0  0  0
    5.3764    2.5668   -0.4950 H   0  0  0  0  0  0  0  0  0  0  0  0
    4.0185    2.3476    0.6539 H   0  0  0  0  0  0  0  0  0  0  0  0
    4.0100    1.5018   -0.9548 H   0  0  0  0  0  0  0  0  0  0  0  0
  1  2  1  0  0  0  0
  1 14  1  0  0  0  0
  1 15  1  0  0  0  0
  1 16  1  0  0  0  0
  2  3  1  0  0  0  0
  3  4  2  0  0  0  0
  3  5  1  0  0  0  0
  5  6  1  0  0  0  0
  5 12  2  0  0  0  0
  6  7  2  0  0  0  0
  7  8  1  0  0  0  0
  7  9  1  0  0  0  0
  8 17  1  0  0  0  0
  8 18  1  0  0  0  0
  9 10  1  0  0  0  0
  9 11  2  0  0  0  0
 10 19  1  0  0  0  0
 10 20  1  0  0  0  0
 10 21  1  0  0  0  0
 11 12  1  0  0  0  0
 11 22  1  0  0  0  0
 12 13  1  0  0  0  0
 13 23  1  0  0  0  0
 13 24  1  0  0  0  0
 13 25  1  0  0  0  0
M  END
