
  xtb     02032211353D
 xtb: 6.4.1 (23d549d)
 20 20  0     0  0            999 V2000
   -3.8606    0.5687   -0.0135 C   0  0  0  0  0  0  0  0  0  0  0  0
   -3.0409   -0.4761    0.0160 C   0  0  0  0  0  0  0  0  0  0  0  0
   -1.5859   -0.4404    0.0086 C   0  0  0  0  0  0  0  0  0  0  0  0
   -0.8699   -1.6401    0.0098 C   0  0  0  0  0  0  0  0  0  0  0  0
    0.5069   -1.6482    0.0019 C   0  0  0  0  0  0  0  0  0  0  0  0
    1.2613   -0.4695   -0.0046 C   0  0  0  0  0  0  0  0  0  0  0  0
    2.7133   -0.5707   -0.0101 C   0  0  0  0  0  0  0  0  0  0  0  0
    3.6016    0.4172    0.0174 C   0  0  0  0  0  0  0  0  0  0  0  0
    0.5240    0.7187   -0.0055 C   0  0  0  0  0  0  0  0  0  0  0  0
    1.1498    1.9175   -0.0147 F   0  0  0  0  0  0  0  0  0  0  0  0
   -0.8535    0.7461    0.0004 C   0  0  0  0  0  0  0  0  0  0  0  0
   -4.9292    0.4401   -0.0056 H   0  0  0  0  0  0  0  0  0  0  0  0
   -3.5100    1.5857   -0.0477 H   0  0  0  0  0  0  0  0  0  0  0  0
   -3.4632   -1.4732    0.0467 H   0  0  0  0  0  0  0  0  0  0  0  0
   -1.4077   -2.5772    0.0158 H   0  0  0  0  0  0  0  0  0  0  0  0
    1.0312   -2.5931    0.0022 H   0  0  0  0  0  0  0  0  0  0  0  0
    3.0724   -1.5931   -0.0370 H   0  0  0  0  0  0  0  0  0  0  0  0
    3.3310    1.4566    0.0477 H   0  0  0  0  0  0  0  0  0  0  0  0
    4.6574    0.2039    0.0109 H   0  0  0  0  0  0  0  0  0  0  0  0
   -1.3430    1.7066    0.0001 H   0  0  0  0  0  0  0  0  0  0  0  0
  1  2  2  0  0  0  0
  2  3  1  0  0  0  0
  3  4  4  0  0  0  0
  4  5  4  0  0  0  0
  5  6  4  0  0  0  0
  6  7  1  0  0  0  0
  7  8  2  0  0  0  0
  6  9  4  0  0  0  0
  9 10  1  0  0  0  0
  3 11  4  0  0  0  0
  9 11  4  0  0  0  0
  1 12  1  0  0  0  0
  1 13  1  0  0  0  0
  2 14  1  0  0  0  0
  4 15  1  0  0  0  0
  5 16  1  0  0  0  0
  7 17  1  0  0  0  0
  8 18  1  0  0  0  0
  8 19  1  0  0  0  0
 11 20  1  0  0  0  0
M  END
