
  xtb     02032211343D
 xtb: 6.4.1 (23d549d)
 16 16  0     0  0            999 V2000
    4.3362   -0.5511    0.0002 C   0  0  0  0  0  0  0  0  0  0  0  0
    3.1015   -1.0358   -0.0003 C   0  0  0  0  0  0  0  0  0  0  0  0
    1.9170   -0.2021   -0.0001 C   0  0  0  0  0  0  0  0  0  0  0  0
    0.5667   -0.6437   -0.0003 C   0  0  0  0  0  0  0  0  0  0  0  0
   -0.1622    0.5191   -0.0001 C   0  0  0  0  0  0  0  0  0  0  0  0
   -1.5712    0.8121   -0.0003 C   0  0  0  0  0  0  0  0  0  0  0  0
   -2.5307   -0.1036    0.0000 C   0  0  0  0  0  0  0  0  0  0  0  0
   -2.3574   -1.4168    0.0006 F   0  0  0  0  0  0  0  0  0  0  0  0
   -3.8244    0.1768   -0.0002 F   0  0  0  0  0  0  0  0  0  0  0  0
    0.6897    1.5650    0.0002 O   0  0  0  0  0  0  0  0  0  0  0  0
    1.9564    1.1136    0.0002 N   0  0  0  0  0  0  0  0  0  0  0  0
    5.1979   -1.1958    0.0001 H   0  0  0  0  0  0  0  0  0  0  0  0
    4.5077    0.5112    0.0007 H   0  0  0  0  0  0  0  0  0  0  0  0
    2.9110   -2.1005   -0.0009 H   0  0  0  0  0  0  0  0  0  0  0  0
    0.2061   -1.6500   -0.0004 H   0  0  0  0  0  0  0  0  0  0  0  0
   -1.8524    1.8529   -0.0006 H   0  0  0  0  0  0  0  0  0  0  0  0
  1  2  2  0  0  0  0
  2  3  1  0  0  0  0
  3  4  4  0  0  0  0
  4  5  2  0  0  0  0
  5  6  1  0  0  0  0
  6  7  2  0  0  0  0
  7  8  1  0  0  0  0
  7  9  1  0  0  0  0
  5 10  1  0  0  0  0
  3 11  2  0  0  0  0
 10 11  1  0  0  0  0
  1 12  1  0  0  0  0
  1 13  1  0  0  0  0
  2 14  1  0  0  0  0
  4 15  1  0  0  0  0
  6 16  1  0  0  0  0
M  END
