
 OpenBabel02032210433D

 24 24  0  0  0  0  0  0  0  0999 V2000
    3.1343    0.5761    1.3320 C   0  0  0  0  0  0  0  0  0  0  0  0
    2.5257    0.0336    0.1228 N   0  0  0  0  0  0  0  0  0  0  0  0
    3.2405   -0.8711   -0.6686 C   0  0  0  0  0  0  0  0  0  0  0  0
    4.3555   -1.5809   -0.2091 C   0  0  0  0  0  0  0  0  0  0  0  0
    5.0529   -2.4704   -1.0402 C   0  0  0  0  0  0  0  0  0  0  0  0
    4.6555   -2.6830   -2.3644 C   0  0  0  0  0  0  0  0  0  0  0  0
    5.4355   -3.6132   -3.1937 C   0  0  0  0  0  0  0  0  0  0  0  0
    4.9835   -4.3387   -4.2187 C   0  0  0  0  0  0  0  0  0  0  0  0
    3.6932   -4.2797   -4.6153 F   0  0  0  0  0  0  0  0  0  0  0  0
    5.8330   -5.1683   -4.8630 F   0  0  0  0  0  0  0  0  0  0  0  0
    3.5640   -1.9584   -2.8452 C   0  0  0  0  0  0  0  0  0  0  0  0
    2.8665   -1.0778   -2.0060 C   0  0  0  0  0  0  0  0  0  0  0  0
    1.0873   -0.2306    0.2047 C   0  0  0  0  0  0  0  0  0  0  0  0
    4.2118    0.7386    1.2202 H   0  0  0  0  0  0  0  0  0  0  0  0
    2.9532   -0.0709    2.1965 H   0  0  0  0  0  0  0  0  0  0  0  0
    2.6979    1.5596    1.5427 H   0  0  0  0  0  0  0  0  0  0  0  0
    4.6965   -1.4781    0.8168 H   0  0  0  0  0  0  0  0  0  0  0  0
    5.9092   -3.0014   -0.6287 H   0  0  0  0  0  0  0  0  0  0  0  0
    6.4791   -3.7347   -2.9172 H   0  0  0  0  0  0  0  0  0  0  0  0
    3.2409   -2.0469   -3.8796 H   0  0  0  0  0  0  0  0  0  0  0  0
    2.0355   -0.5174   -2.4274 H   0  0  0  0  0  0  0  0  0  0  0  0
    0.6289    0.3468    1.0161 H   0  0  0  0  0  0  0  0  0  0  0  0
    0.8847   -1.2900    0.4040 H   0  0  0  0  0  0  0  0  0  0  0  0
    0.5800    0.0640   -0.7194 H   0  0  0  0  0  0  0  0  0  0  0  0
  1  2  1  0  0  0  0
  1 14  1  0  0  0  0
  1 15  1  0  0  0  0
  1 16  1  0  0  0  0
  2  3  1  0  0  0  0
  2 13  1  0  0  0  0
  3  4  1  0  0  0  0
  3 12  2  0  0  0  0
  4  5  2  0  0  0  0
  4 17  1  0  0  0  0
  5  6  1  0  0  0  0
  5 18  1  0  0  0  0
  6  7  1  0  0  0  0
  6 11  2  0  0  0  0
  7  8  2  0  0  0  0
  7 19  1  0  0  0  0
  8  9  1  0  0  0  0
  8 10  1  0  0  0  0
 11 12  1  0  0  0  0
 11 20  1  0  0  0  0
 12 21  1  0  0  0  0
 13 22  1  0  0  0  0
 13 23  1  0  0  0  0
 13 24  1  0  0  0  0
M  END
