22

C          2.14234       -0.34708        1.26793
O          2.35440       -0.11290       -0.07520
C          3.05770       -0.90920       -0.92530
C          2.74280       -0.99070       -2.29580
C          3.47670       -1.81770       -3.14220
C          4.53070       -2.57590       -2.64020
C          4.87140       -2.51870       -1.27970
C          6.01740       -3.36390       -0.78590
C          4.13040       -1.67370       -0.40980
C          4.44380       -1.56040        1.06460
H          1.53403        0.47982        1.68797
H          3.11321       -0.38123        1.80692
H          1.59074       -1.30034        1.41153
H          1.92960       -0.41760       -2.71950
H          3.22640       -1.87210       -4.19370
H          5.08310       -3.21320       -3.32110
H          6.47390       -3.96010       -1.60400
H          5.65500       -4.07280       -0.01190
H          6.80870       -2.71400       -0.35640
H          5.29350       -2.19090        1.38890
H          3.55540       -1.86460        1.65710
H          4.69660       -0.50720        1.30840
22

C          2.59361        0.04442        1.27456
O          2.35440       -0.11290       -0.07520
C          3.05770       -0.90920       -0.92530
C          2.74280       -0.99070       -2.29580
C          3.47670       -1.81770       -3.14220
C          4.53070       -2.57590       -2.64020
C          4.87140       -2.51870       -1.27970
C          6.01740       -3.36390       -0.78590
C          4.13040       -1.67370       -0.40980
C          4.44380       -1.56040        1.06460
H          1.85419        0.75770        1.69255
H          3.61275        0.45631        1.43567
H          2.48527       -0.92705        1.80192
H          1.92960       -0.41760       -2.71950
H          3.22640       -1.87210       -4.19370
H          5.08310       -3.21320       -3.32110
H          6.47390       -3.96010       -1.60400
H          5.65500       -4.07280       -0.01190
H          6.80870       -2.71400       -0.35640
H          5.29350       -2.19090        1.38890
H          3.55540       -1.86460        1.65710
H          4.69660       -0.50720        1.30840
22

C          2.84949        0.50504        1.05478
O          2.35440       -0.11290       -0.07520
C          3.05770       -0.90920       -0.92530
C          2.74280       -0.99070       -2.29580
C          3.47670       -1.81770       -3.14220
C          4.53070       -2.57590       -2.64020
C          4.87140       -2.51870       -1.27970
C          6.01740       -3.36390       -0.78590
C          4.13040       -1.67370       -0.40980
C          4.44380       -1.56040        1.06460
H          2.03566        1.08457        1.53649
H          3.66709        1.20499        0.77932
H          3.22061       -0.25192        1.77788
H          1.92960       -0.41760       -2.71950
H          3.22640       -1.87210       -4.19370
H          5.08310       -3.21320       -3.32110
H          6.47390       -3.96010       -1.60400
H          5.65500       -4.07280       -0.01190
H          6.80870       -2.71400       -0.35640
H          5.29350       -2.19090        1.38890
H          3.55540       -1.86460        1.65710
H          4.69660       -0.50720        1.30840
22

C          1.02365        0.23025       -0.19837
O          2.35440       -0.11290       -0.07520
C          3.05770       -0.90920       -0.92530
C          2.74280       -0.99070       -2.29580
C          3.47670       -1.81770       -3.14220
C          4.53070       -2.57590       -2.64020
C          4.87140       -2.51870       -1.27970
C          6.01740       -3.36390       -0.78590
C          4.13040       -1.67370       -0.40980
C          4.44380       -1.56040        1.06460
H          0.73989        0.88912        0.64756
H          0.39005       -0.68171       -0.16453
H          0.85282        0.78037       -1.14799
H          1.92960       -0.41760       -2.71950
H          3.22640       -1.87210       -4.19370
H          5.08310       -3.21320       -3.32110
H          6.47390       -3.96010       -1.60400
H          5.65500       -4.07280       -0.01190
H          6.80870       -2.71400       -0.35640
H          5.29350       -2.19090        1.38890
H          3.55540       -1.86460        1.65710
H          4.69660       -0.50720        1.30840
22

C          1.71587        1.06438       -0.40702
O          2.35440       -0.11290       -0.07520
C          3.05770       -0.90920       -0.92530
C          2.74280       -0.99070       -2.29580
C          3.47670       -1.81770       -3.14220
C          4.53070       -2.57590       -2.64020
C          4.87140       -2.51870       -1.27970
C          6.01740       -3.36390       -0.78590
C          4.13040       -1.67370       -0.40980
C          4.44380       -1.56040        1.06460
H          1.23092        1.48110        0.49928
H          0.93223        0.87102       -1.17043
H          2.44828        1.80665       -0.78937
H          1.92960       -0.41760       -2.71950
H          3.22640       -1.87210       -4.19370
H          5.08310       -3.21320       -3.32110
H          6.47390       -3.96010       -1.60400
H          5.65500       -4.07280       -0.01190
H          6.80870       -2.71400       -0.35640
H          5.29350       -2.19090        1.38890
H          3.55540       -1.86460        1.65710
H          4.69660       -0.50720        1.30840
22

C          1.28464        0.69027       -0.41335
O          2.35440       -0.11290       -0.07520
C          3.05770       -0.90920       -0.92530
C          2.74280       -0.99070       -2.29580
C          3.47670       -1.81770       -3.14220
C          4.53070       -2.57590       -2.64020
C          4.87140       -2.51870       -1.27970
C          6.01740       -3.36390       -0.78590
C          4.13040       -1.67370       -0.40980
C          4.44380       -1.56040        1.06460
H          0.92498        1.21556        0.49491
H          0.45488        0.07068       -0.81566
H          1.59348        1.44994       -1.16243
H          1.92960       -0.41760       -2.71950
H          3.22640       -1.87210       -4.19370
H          5.08310       -3.21320       -3.32110
H          6.47390       -3.96010       -1.60400
H          5.65500       -4.07280       -0.01190
H          6.80870       -2.71400       -0.35640
H          5.29350       -2.19090        1.38890
H          3.55540       -1.86460        1.65710
H          4.69660       -0.50720        1.30840
