35

C          1.11000        0.06290        0.03830
C          2.60970        0.05080        0.03280
C          3.32130       -1.17170        0.02460
C          4.72470       -1.17990        0.01830
C          5.39400        0.04310        0.02050
C          4.71180        1.24590        0.02960
C          3.31380        1.27140        0.03560
C          5.66970        2.41600        0.03260
C          5.49690        3.28020       -1.22550
C          5.51110        3.25920        1.30670
C          6.99650        1.69070        0.02020
C          8.28230        2.23980        0.01510
C          9.39360        1.37140        0.00420
C         10.78980        1.91900       -0.00210
C          9.19230       -0.02740       -0.00100
C          7.89490       -0.56250        0.00410
C          6.81540        0.31990        0.01440
H          0.69420       -0.96720        0.03640
H          0.73820        0.59370       -0.86330
H          0.74450        0.58790        0.94590
H          2.79020       -2.11530        0.02290
H          5.26940       -2.11480        0.01170
H          2.78480        2.21630        0.04220
H          4.48870        3.74670       -1.24070
H          5.61280        2.66230       -2.14240
H          6.25800        4.08940       -1.24820
H          4.50320        3.72510        1.34150
H          6.27310        4.06710        1.33540
H          5.63690        2.62510        2.21130
H          8.41370        3.31440        0.01960
H         10.79160        3.02980        0.00210
H         11.32290        1.57010       -0.91150
H         11.33400        1.56300        0.89780
H         10.04180       -0.69920       -0.00910
H          7.74120       -1.63350       -0.00010
