20

C         -2.86260        0.02540       -0.03500
C         -1.36540        0.04530       -0.02880
C         -0.65650        1.25280       -0.01920
C          0.75240        1.24870       -0.01620
C          1.50560        2.56570       -0.00700
F          0.64760        3.65251       -0.00272
F          2.29691        2.64309        1.12502
F          2.30169        2.65590       -1.13479
C          1.42680       -0.00260       -0.02280
C          2.92830       -0.14830       -0.02220
C          0.66580       -1.18140       -0.03070
N         -0.68970       -1.13130       -0.03390
H         -3.28660        1.05210       -0.02990
H         -3.22950       -0.51330        0.86350
H         -3.22090       -0.50020       -0.94480
H         -1.20750        2.18470       -0.01500
H          3.47160        0.81420       -0.01720
H          3.24420       -0.70760       -0.92810
H          3.24360       -0.71730        0.87780
H          1.15500       -2.14750       -0.03530
