
 OpenBabel02012213473D

 28 29  0  0  0  0  0  0  0  0999 V2000
    2.5287    0.0019   -0.0079 C   0  0  0  0  0  0  0  0  0  0  0  0
    1.0304   -0.0064   -0.0003 C   0  0  0  0  0  0  0  0  0  0  0  0
    0.3149   -1.2042   -0.0200 C   0  0  0  0  0  0  0  0  0  0  0  0
   -1.0850   -1.1961   -0.0329 C   0  0  0  0  0  0  0  0  0  0  0  0
   -1.8169    0.0039   -0.0143 C   0  0  0  0  0  0  0  0  0  0  0  0
   -3.3012    0.0085   -0.0359 C   0  0  0  0  0  0  0  0  0  0  0  0
   -4.0500   -1.0130    0.5758 C   0  0  0  0  0  0  0  0  0  0  0  0
   -5.4498   -1.0232    0.5366 C   0  0  0  0  0  0  0  0  0  0  0  0
   -6.1472    0.0011   -0.1054 C   0  0  0  0  0  0  0  0  0  0  0  0
   -7.6452    0.0031   -0.1604 C   0  0  0  0  0  0  0  0  0  0  0  0
   -5.4239    1.0324   -0.7072 C   0  0  0  0  0  0  0  0  0  0  0  0
   -4.0243    1.0299   -0.6776 C   0  0  0  0  0  0  0  0  0  0  0  0
   -1.0773    1.1995    0.0179 C   0  0  0  0  0  0  0  0  0  0  0  0
    0.3234    1.1979    0.0167 C   0  0  0  0  0  0  0  0  0  0  0  0
    2.9366   -1.0140    0.0116 H   0  0  0  0  0  0  0  0  0  0  0  0
    2.9080    0.5310    0.8733 H   0  0  0  0  0  0  0  0  0  0  0  0
    2.8978    0.4961   -0.9112 H   0  0  0  0  0  0  0  0  0  0  0  0
    0.8369   -2.1582   -0.0310 H   0  0  0  0  0  0  0  0  0  0  0  0
   -1.5968   -2.1544   -0.0735 H   0  0  0  0  0  0  0  0  0  0  0  0
   -3.5511   -1.8221    1.1055 H   0  0  0  0  0  0  0  0  0  0  0  0
   -5.9852   -1.8406    1.0139 H   0  0  0  0  0  0  0  0  0  0  0  0
   -8.0672   -0.8639    0.3582 H   0  0  0  0  0  0  0  0  0  0  0  0
   -7.9830   -0.0311   -1.2013 H   0  0  0  0  0  0  0  0  0  0  0  0
   -8.0396    0.9055    0.3174 H   0  0  0  0  0  0  0  0  0  0  0  0
   -5.9423    1.8446   -1.2118 H   0  0  0  0  0  0  0  0  0  0  0  0
   -3.5046    1.8404   -1.1841 H   0  0  0  0  0  0  0  0  0  0  0  0
   -1.5831    2.1622    0.0521 H   0  0  0  0  0  0  0  0  0  0  0  0
    0.8552    2.1457    0.0307 H   0  0  0  0  0  0  0  0  0  0  0  0
  1  2  1  0  0  0  0
  1 15  1  0  0  0  0
  1 16  1  0  0  0  0
  1 17  1  0  0  0  0
  2  3  1  0  0  0  0
  2 14  2  0  0  0  0
  3  4  2  0  0  0  0
  3 18  1  0  0  0  0
  4  5  1  0  0  0  0
  4 19  1  0  0  0  0
  5  6  1  0  0  0  0
  5 13  2  0  0  0  0
  6  7  1  0  0  0  0
  6 12  2  0  0  0  0
  7  8  2  0  0  0  0
  7 20  1  0  0  0  0
  8  9  1  0  0  0  0
  8 21  1  0  0  0  0
  9 10  1  0  0  0  0
  9 11  2  0  0  0  0
 10 22  1  0  0  0  0
 10 23  1  0  0  0  0
 10 24  1  0  0  0  0
 11 12  1  0  0  0  0
 11 25  1  0  0  0  0
 12 26  1  0  0  0  0
 13 14  1  0  0  0  0
 13 27  1  0  0  0  0
 14 28  1  0  0  0  0
M  END
