
 OpenBabel02012213363D

 42 43  0  0  0  0  0  0  0  0999 V2000
    4.7455   -0.5722   -3.2935 C   0  0  0  0  0  0  0  0  0  0  0  0
    3.3171   -0.7317   -3.8461 C   0  0  0  0  0  0  0  0  0  0  0  0
    3.3932   -1.2995   -5.2722 C   0  0  0  0  0  0  0  0  0  0  0  0
    2.5959   -1.6422   -3.0824 O   0  0  0  0  0  0  0  0  0  0  0  0
    2.2034   -1.5581   -1.7783 C   0  0  0  0  0  0  0  0  0  0  0  0
    1.4548   -2.5762   -1.2232 N   0  0  0  0  0  0  0  0  0  0  0  0
    1.2600   -3.7939   -1.9777 C   0  0  0  0  0  0  0  0  0  0  0  0
    2.3075   -4.3703   -2.7301 C   0  0  0  0  0  0  0  0  0  0  0  0
    2.1089   -5.5528   -3.4463 C   0  0  0  0  0  0  0  0  0  0  0  0
    0.8578   -6.1837   -3.4382 C   0  0  0  0  0  0  0  0  0  0  0  0
    0.6303   -7.4518   -4.2059 C   0  0  0  0  0  0  0  0  0  0  0  0
   -0.1901   -5.6211   -2.7001 C   0  0  0  0  0  0  0  0  0  0  0  0
    0.0087   -4.4442   -1.9744 C   0  0  0  0  0  0  0  0  0  0  0  0
    0.8431   -2.4556    0.0890 C   0  0  0  0  0  0  0  0  0  0  0  0
    0.4412   -1.2072    0.6281 C   0  0  0  0  0  0  0  0  0  0  0  0
   -0.1593   -1.1277    1.8884 C   0  0  0  0  0  0  0  0  0  0  0  0
   -0.3724   -2.2804    2.6411 C   0  0  0  0  0  0  0  0  0  0  0  0
    0.0140   -3.5202    2.1358 C   0  0  0  0  0  0  0  0  0  0  0  0
    0.6118   -3.6097    0.8772 C   0  0  0  0  0  0  0  0  0  0  0  0
    2.4979   -0.5687   -1.1241 O   0  0  0  0  0  0  0  0  0  0  0  0
    2.6014    0.6345   -3.8985 C   0  0  0  0  0  0  0  0  0  0  0  0
    5.2603   -1.5569   -3.2704 H   0  0  0  0  0  0  0  0  0  0  0  0
    4.7363   -0.1593   -2.2644 H   0  0  0  0  0  0  0  0  0  0  0  0
    5.3355    0.1178   -3.9353 H   0  0  0  0  0  0  0  0  0  0  0  0
    3.8952   -2.2911   -5.2698 H   0  0  0  0  0  0  0  0  0  0  0  0
    3.9579   -0.6172   -5.9437 H   0  0  0  0  0  0  0  0  0  0  0  0
    2.3702   -1.4340   -5.6871 H   0  0  0  0  0  0  0  0  0  0  0  0
    3.2938   -3.9246   -2.7466 H   0  0  0  0  0  0  0  0  0  0  0  0
    2.9344   -5.9763   -4.0050 H   0  0  0  0  0  0  0  0  0  0  0  0
    1.5519   -7.7812   -4.7315 H   0  0  0  0  0  0  0  0  0  0  0  0
   -0.1678   -7.2920   -4.9610 H   0  0  0  0  0  0  0  0  0  0  0  0
    0.3163   -8.2576   -3.5094 H   0  0  0  0  0  0  0  0  0  0  0  0
   -1.1638   -6.0953   -2.6858 H   0  0  0  0  0  0  0  0  0  0  0  0
   -0.8241   -4.0312   -1.4201 H   0  0  0  0  0  0  0  0  0  0  0  0
    0.5543   -0.2830    0.0826 H   0  0  0  0  0  0  0  0  0  0  0  0
   -0.4676   -0.1664    2.2797 H   0  0  0  0  0  0  0  0  0  0  0  0
   -0.8395   -2.2148    3.6150 H   0  0  0  0  0  0  0  0  0  0  0  0
   -0.1507   -4.4160    2.7207 H   0  0  0  0  0  0  0  0  0  0  0  0
    0.9053   -4.5907    0.5275 H   0  0  0  0  0  0  0  0  0  0  0  0
    3.1490    1.3350   -4.5652 H   0  0  0  0  0  0  0  0  0  0  0  0
    2.5447    1.1075   -2.8977 H   0  0  0  0  0  0  0  0  0  0  0  0
    1.5671    0.5135   -4.2859 H   0  0  0  0  0  0  0  0  0  0  0  0
  1  2  1  0  0  0  0
  1 22  1  0  0  0  0
  1 23  1  0  0  0  0
  1 24  1  0  0  0  0
  2  3  1  0  0  0  0
  2  4  1  0  0  0  0
  2 21  1  0  0  0  0
  3 25  1  0  0  0  0
  3 26  1  0  0  0  0
  3 27  1  0  0  0  0
  4  5  1  0  0  0  0
  5  6  1  0  0  0  0
  5 20  2  0  0  0  0
  6  7  1  0  0  0  0
  6 14  1  0  0  0  0
  7  8  1  0  0  0  0
  7 13  2  0  0  0  0
  8  9  2  0  0  0  0
  8 28  1  0  0  0  0
  9 10  1  0  0  0  0
  9 29  1  0  0  0  0
 10 11  1  0  0  0  0
 10 12  2  0  0  0  0
 11 30  1  0  0  0  0
 11 31  1  0  0  0  0
 11 32  1  0  0  0  0
 12 13  1  0  0  0  0
 12 33  1  0  0  0  0
 13 34  1  0  0  0  0
 14 15  1  0  0  0  0
 14 19  2  0  0  0  0
 15 16  2  0  0  0  0
 15 35  1  0  0  0  0
 16 17  1  0  0  0  0
 16 36  1  0  0  0  0
 17 18  2  0  0  0  0
 17 37  1  0  0  0  0
 18 19  1  0  0  0  0
 18 38  1  0  0  0  0
 19 39  1  0  0  0  0
 21 40  1  0  0  0  0
 21 41  1  0  0  0  0
 21 42  1  0  0  0  0
M  END
