19

C          0.99870       -0.05540        0.09880
C          2.50390        0.00060        0.09860
C          3.23550       -1.20470        0.09840
C          4.62700       -1.16240        0.09830
N          5.41150       -2.26920        0.09810
S          6.93230       -1.61980        0.09790
N          6.66500        0.01220        0.09790
C          5.31000        0.08060        0.09780
C          4.59950        1.27790        0.09830
C          3.18980        1.24910        0.09840
C          2.42980        2.54960        0.09870
H          0.62510       -1.10130        0.09900
H          0.60320        0.45040       -0.80670
H          0.60330        0.45080        1.00410
H          2.72950       -2.16260        0.09860
H          5.13660        2.21870        0.09820
H          3.11250        3.42560        0.09820
H          1.79120        2.61220        1.00440
H          1.79030        2.61190       -0.80650
