
  xtb     02032211353D
 xtb: 6.4.1 (23d549d)
 27 27  0     0  0            999 V2000
   -2.8972   -1.5285    0.7167 C   0  0  0  0  0  0  0  0  0  0  0  0
   -2.5967   -0.3677    0.1489 C   0  0  0  0  0  0  0  0  0  0  0  0
   -1.2703    0.2298    0.0270 C   0  0  0  0  0  0  0  0  0  0  0  0
   -1.1918    1.6146   -0.1002 C   0  0  0  0  0  0  0  0  0  0  0  0
    0.0165    2.2768   -0.2425 C   0  0  0  0  0  0  0  0  0  0  0  0
    0.0688    3.7684   -0.3839 C   0  0  0  0  0  0  0  0  0  0  0  0
    1.1773    1.5232   -0.2187 C   0  0  0  0  0  0  0  0  0  0  0  0
    1.1537    0.1383   -0.0662 C   0  0  0  0  0  0  0  0  0  0  0  0
    2.4466   -0.5356    0.0883 C   0  0  0  0  0  0  0  0  0  0  0  0
    2.6971   -1.4751    0.9893 C   0  0  0  0  0  0  0  0  0  0  0  0
   -0.0807   -0.5231    0.0061 C   0  0  0  0  0  0  0  0  0  0  0  0
   -0.1968   -1.8898    0.0189 O   0  0  0  0  0  0  0  0  0  0  0  0
    0.5741   -2.6392   -0.8949 C   0  0  0  0  0  0  0  0  0  0  0  0
   -3.9167   -1.8748    0.7664 H   0  0  0  0  0  0  0  0  0  0  0  0
   -2.1480   -2.1642    1.1511 H   0  0  0  0  0  0  0  0  0  0  0  0
   -3.3962    0.2502   -0.2441 H   0  0  0  0  0  0  0  0  0  0  0  0
   -2.1100    2.1855   -0.0971 H   0  0  0  0  0  0  0  0  0  0  0  0
   -0.8396    4.1453   -0.8477 H   0  0  0  0  0  0  0  0  0  0  0  0
    0.9242    4.0709   -0.9838 H   0  0  0  0  0  0  0  0  0  0  0  0
    0.1647    4.2329    0.5980 H   0  0  0  0  0  0  0  0  0  0  0  0
    2.1365    2.0166   -0.2943 H   0  0  0  0  0  0  0  0  0  0  0  0
    3.2488   -0.1528   -0.5318 H   0  0  0  0  0  0  0  0  0  0  0  0
    1.9314   -1.8386    1.6547 H   0  0  0  0  0  0  0  0  0  0  0  0
    3.6792   -1.9021    1.1056 H   0  0  0  0  0  0  0  0  0  0  0  0
   -0.0887   -3.4007   -1.3123 H   0  0  0  0  0  0  0  0  0  0  0  0
    1.4137   -3.1295   -0.3931 H   0  0  0  0  0  0  0  0  0  0  0  0
    0.9623   -2.0167   -1.7038 H   0  0  0  0  0  0  0  0  0  0  0  0
  1  2  2  0  0  0  0
  2  3  1  0  0  0  0
  3  4  4  0  0  0  0
  4  5  4  0  0  0  0
  5  6  1  0  0  0  0
  5  7  4  0  0  0  0
  7  8  4  0  0  0  0
  8  9  1  0  0  0  0
  9 10  2  0  0  0  0
  3 11  4  0  0  0  0
  8 11  4  0  0  0  0
 11 12  1  0  0  0  0
 12 13  1  0  0  0  0
  1 14  1  0  0  0  0
  1 15  1  0  0  0  0
  2 16  1  0  0  0  0
  4 17  1  0  0  0  0
  6 18  1  0  0  0  0
  6 19  1  0  0  0  0
  6 20  1  0  0  0  0
  7 21  1  0  0  0  0
  9 22  1  0  0  0  0
 10 23  1  0  0  0  0
 10 24  1  0  0  0  0
 13 25  1  0  0  0  0
 13 26  1  0  0  0  0
 13 27  1  0  0  0  0
M  END
