
  xtb     02032210493D
 xtb: 6.4.1 (23d549d)
 17 17  0     0  0            999 V2000
    2.9091   -0.9565   -0.7187 c   0  0  0  0  0  0  0  0  0  0  0  0
    2.3920   -0.2472    0.2743 c   0  0  0  0  0  0  0  0  0  0  0  0
    3.1141    0.7301    1.0761 c   0  0  0  0  0  0  0  0  0  0  0  0
    2.8922    0.8250    2.4774 c   0  0  0  0  0  0  0  0  0  0  0  0
    3.7216    1.6948    3.1009 c   0  0  0  0  0  0  0  0  0  0  0  0
    4.8028    2.4528    2.0053 s   0  0  0  0  0  0  0  0  0  0  0  0
    4.1151    1.5816    0.6604 c   0  0  0  0  0  0  0  0  0  0  0  0
    4.6178    1.9147   -0.6499 c   0  0  0  0  0  0  0  0  0  0  0  0
    3.9308    1.9371   -1.7838 c   0  0  0  0  0  0  0  0  0  0  0  0
    2.6519    1.6319   -1.9559 f   0  0  0  0  0  0  0  0  0  0  0  0
    4.4640    2.2795   -2.9549 f   0  0  0  0  0  0  0  0  0  0  0  0
    2.3277   -1.6919   -1.2463 h   0  0  0  0  0  0  0  0  0  0  0  0
    3.9317   -0.8356   -1.0352 h   0  0  0  0  0  0  0  0  0  0  0  0
    1.3734   -0.4264    0.5934 h   0  0  0  0  0  0  0  0  0  0  0  0
    2.1482    0.2410    2.9892 h   0  0  0  0  0  0  0  0  0  0  0  0
    3.7679    1.9429    4.1426 h   0  0  0  0  0  0  0  0  0  0  0  0
    5.6407    2.2581   -0.7070 h   0  0  0  0  0  0  0  0  0  0  0  0
  1  2  2  0  0  0  0
  2  3  1  0  0  0  0
  3  4  4  0  0  0  0
  4  5  2  0  0  0  0
  5  6  1  0  0  0  0
  3  7  4  0  0  0  0
  6  7  1  0  0  0  0
  7  8  1  0  0  0  0
  8  9  2  0  0  0  0
  9 10  1  0  0  0  0
  9 11  1  0  0  0  0
  1 12  1  0  0  0  0
  1 13  1  0  0  0  0
  2 14  1  0  0  0  0
  4 15  1  0  0  0  0
  5 16  1  0  0  0  0
  8 17  1  0  0  0  0
M  END
