
 OpenBabel02032211003D

 28 29  0  0  0  0  0  0  0  0999 V2000
    2.6161    0.7364   -1.1864 C   0  0  0  0  0  0  0  0  0  0  0  0
    2.2585    0.1318   -0.0480 C   0  0  0  0  0  0  0  0  0  0  0  0
    3.0318    0.2731    1.2050 C   0  0  0  0  0  0  0  0  0  0  0  0
    2.6106   -0.3862    2.3664 C   0  0  0  0  0  0  0  0  0  0  0  0
    3.3533   -0.2497    3.5393 C   0  0  0  0  0  0  0  0  0  0  0  0
    4.5065    0.5365    3.5481 C   0  0  0  0  0  0  0  0  0  0  0  0
    4.9082    1.1893    2.3701 C   0  0  0  0  0  0  0  0  0  0  0  0
    6.1315    2.0268    2.3376 C   0  0  0  0  0  0  0  0  0  0  0  0
    6.5121    2.7093    1.1695 C   0  0  0  0  0  0  0  0  0  0  0  0
    7.6737    3.4825    1.1726 C   0  0  0  0  0  0  0  0  0  0  0  0
    8.4498    3.5712    2.3283 C   0  0  0  0  0  0  0  0  0  0  0  0
    8.0505    2.8809    3.4794 C   0  0  0  0  0  0  0  0  0  0  0  0
    8.8682    2.9600    4.7096 C   0  0  0  0  0  0  0  0  0  0  0  0
    8.5371    2.3193    5.8362 C   0  0  0  0  0  0  0  0  0  0  0  0
    6.9098    2.1360    3.4509 N   0  0  0  0  0  0  0  0  0  0  0  0
    4.1592    1.0379    1.2417 N   0  0  0  0  0  0  0  0  0  0  0  0
    2.0172    0.6008   -2.0812 H   0  0  0  0  0  0  0  0  0  0  0  0
    3.4982    1.3666   -1.2440 H   0  0  0  0  0  0  0  0  0  0  0  0
    1.3661   -0.4879   -0.0505 H   0  0  0  0  0  0  0  0  0  0  0  0
    1.7185   -1.0004    2.3643 H   0  0  0  0  0  0  0  0  0  0  0  0
    3.0362   -0.7556    4.4421 H   0  0  0  0  0  0  0  0  0  0  0  0
    5.0739    0.6313    4.4652 H   0  0  0  0  0  0  0  0  0  0  0  0
    5.9211    2.6481    0.2644 H   0  0  0  0  0  0  0  0  0  0  0  0
    7.9737    4.0118    0.2774 H   0  0  0  0  0  0  0  0  0  0  0  0
    9.3523    4.1700    2.3239 H   0  0  0  0  0  0  0  0  0  0  0  0
    9.7752    3.5581    4.7031 H   0  0  0  0  0  0  0  0  0  0  0  0
    7.6433    1.7066    5.9014 H   0  0  0  0  0  0  0  0  0  0  0  0
    9.1706    2.4064    6.7130 H   0  0  0  0  0  0  0  0  0  0  0  0
  1  2  2  0  0  0  0
  1 17  1  0  0  0  0
  1 18  1  0  0  0  0
  2  3  1  0  0  0  0
  2 19  1  0  0  0  0
  3  4  1  0  0  0  0
  3 16  2  0  0  0  0
  4  5  2  0  0  0  0
  4 20  1  0  0  0  0
  5  6  1  0  0  0  0
  5 21  1  0  0  0  0
  6  7  2  0  0  0  0
  6 22  1  0  0  0  0
  7  8  1  0  0  0  0
  7 16  1  0  0  0  0
  8  9  1  0  0  0  0
  8 15  2  0  0  0  0
  9 10  2  0  0  0  0
  9 23  1  0  0  0  0
 10 11  1  0  0  0  0
 10 24  1  0  0  0  0
 11 12  2  0  0  0  0
 11 25  1  0  0  0  0
 12 13  1  0  0  0  0
 12 15  1  0  0  0  0
 13 14  2  0  0  0  0
 13 26  1  0  0  0  0
 14 27  1  0  0  0  0
 14 28  1  0  0  0  0
M  END
