
  xtb     02032211003D
 xtb: 6.4.1 (23d549d)
 28 29  0     0  0            999 V2000
    1.4735   -0.7869   -0.2534 c   0  0  0  0  0  0  0  0  0  0  0  0
    2.5993   -0.1299   -0.0060 c   0  0  0  0  0  0  0  0  0  0  0  0
    3.1390    0.2081    1.3078 c   0  0  0  0  0  0  0  0  0  0  0  0
    2.5574   -0.1924    2.5145 c   0  0  0  0  0  0  0  0  0  0  0  0
    3.1525    0.1946    3.7022 c   0  0  0  0  0  0  0  0  0  0  0  0
    4.2993    0.9670    3.6622 c   0  0  0  0  0  0  0  0  0  0  0  0
    4.8176    1.3189    2.4147 c   0  0  0  0  0  0  0  0  0  0  0  0
    6.0384    2.1335    2.3125 c   0  0  0  0  0  0  0  0  0  0  0  0
    6.6656    2.3200    1.0785 c   0  0  0  0  0  0  0  0  0  0  0  0
    7.8174    3.0841    1.0356 c   0  0  0  0  0  0  0  0  0  0  0  0
    8.2985    3.6380    2.2092 c   0  0  0  0  0  0  0  0  0  0  0  0
    7.6009    3.4102    3.3997 c   0  0  0  0  0  0  0  0  0  0  0  0
    8.0677    3.9953    4.6530 c   0  0  0  0  0  0  0  0  0  0  0  0
    7.4032    3.9051    5.7977 c   0  0  0  0  0  0  0  0  0  0  0  0
    6.4992    2.6670    3.4359 n   0  0  0  0  0  0  0  0  0  0  0  0
    4.2489    0.9412    1.2769 n   0  0  0  0  0  0  0  0  0  0  0  0
    1.1517   -0.9844   -1.2616 h   0  0  0  0  0  0  0  0  0  0  0  0
    0.8251   -1.1507    0.5258 h   0  0  0  0  0  0  0  0  0  0  0  0
    3.2133    0.2248   -0.8228 h   0  0  0  0  0  0  0  0  0  0  0  0
    1.6635   -0.7951    2.5214 h   0  0  0  0  0  0  0  0  0  0  0  0
    2.7248   -0.1041    4.6492 h   0  0  0  0  0  0  0  0  0  0  0  0
    4.8032    1.2979    4.5549 h   0  0  0  0  0  0  0  0  0  0  0  0
    6.2418    1.8656    0.1984 h   0  0  0  0  0  0  0  0  0  0  0  0
    8.3349    3.2468    0.1005 h   0  0  0  0  0  0  0  0  0  0  0  0
    9.1945    4.2408    2.2125 h   0  0  0  0  0  0  0  0  0  0  0  0
    9.0061    4.5312    4.5957 h   0  0  0  0  0  0  0  0  0  0  0  0
    6.4667    3.3773    5.8423 h   0  0  0  0  0  0  0  0  0  0  0  0
    7.7663    4.3511    6.7076 h   0  0  0  0  0  0  0  0  0  0  0  0
  1  2  2  0  0  0  0
  2  3  1  0  0  0  0
  3  4  4  0  0  0  0
  4  5  4  0  0  0  0
  5  6  4  0  0  0  0
  6  7  4  0  0  0  0
  7  8  1  0  0  0  0
  8  9  4  0  0  0  0
  9 10  4  0  0  0  0
 10 11  4  0  0  0  0
 11 12  4  0  0  0  0
 12 13  1  0  0  0  0
 13 14  2  0  0  0  0
  8 15  4  0  0  0  0
 12 15  4  0  0  0  0
  3 16  4  0  0  0  0
  7 16  4  0  0  0  0
  1 17  1  0  0  0  0
  1 18  1  0  0  0  0
  2 19  1  0  0  0  0
  4 20  1  0  0  0  0
  5 21  1  0  0  0  0
  6 22  1  0  0  0  0
  9 23  1  0  0  0  0
 10 24  1  0  0  0  0
 11 25  1  0  0  0  0
 13 26  1  0  0  0  0
 14 27  1  0  0  0  0
 14 28  1  0  0  0  0
M  END
