
 OpenBabel02032210503D

 17 17  0  0  0  0  0  0  0  0999 V2000
    1.1364    0.7430   -0.4886 C   0  0  0  0  0  0  0  0  0  0  0  0
    2.2324    0.0609   -0.1383 C   0  0  0  0  0  0  0  0  0  0  0  0
    3.0077   -0.7647   -1.0952 C   0  0  0  0  0  0  0  0  0  0  0  0
    2.7417   -0.9617   -2.4377 C   0  0  0  0  0  0  0  0  0  0  0  0
    3.7328   -1.7986   -2.9037 C   0  0  0  0  0  0  0  0  0  0  0  0
    4.5555   -2.1007   -1.9250 O   0  0  0  0  0  0  0  0  0  0  0  0
    4.1537   -1.5000   -0.8255 C   0  0  0  0  0  0  0  0  0  0  0  0
    4.8435   -1.6137    0.4787 C   0  0  0  0  0  0  0  0  0  0  0  0
    5.9519   -2.3462    0.6480 C   0  0  0  0  0  0  0  0  0  0  0  0
    6.5134   -3.0351   -0.3811 F   0  0  0  0  0  0  0  0  0  0  0  0
    6.5349   -2.4067    1.8736 F   0  0  0  0  0  0  0  0  0  0  0  0
    0.6082    1.3319    0.2544 H   0  0  0  0  0  0  0  0  0  0  0  0
    0.7508    0.7301   -1.5016 H   0  0  0  0  0  0  0  0  0  0  0  0
    2.5585    0.1227    0.8939 H   0  0  0  0  0  0  0  0  0  0  0  0
    1.9283   -0.5524   -3.0209 H   0  0  0  0  0  0  0  0  0  0  0  0
    3.8319   -2.1605   -3.9182 H   0  0  0  0  0  0  0  0  0  0  0  0
    4.4443   -1.0867    1.3382 H   0  0  0  0  0  0  0  0  0  0  0  0
  1  2  2  0  0  0  0
  1 12  1  0  0  0  0
  1 13  1  0  0  0  0
  2  3  1  0  0  0  0
  2 14  1  0  0  0  0
  3  4  1  0  0  0  0
  3  7  2  0  0  0  0
  4  5  2  0  0  0  0
  4 15  1  0  0  0  0
  5  6  1  0  0  0  0
  5 16  1  0  0  0  0
  6  7  1  0  0  0  0
  7  8  1  0  0  0  0
  8  9  2  0  0  0  0
  8 17  1  0  0  0  0
  9 10  1  0  0  0  0
  9 11  1  0  0  0  0
M  END
