
  xtb     02032211353D
 xtb: 6.4.1 (23d549d)
 26 26  0     0  0            999 V2000
   -1.5443   -3.7737   -0.0564 C   0  0  0  0  0  0  0  0  0  0  0  0
   -2.1259   -2.5881    0.0765 C   0  0  0  0  0  0  0  0  0  0  0  0
   -1.4605   -1.2906    0.0220 C   0  0  0  0  0  0  0  0  0  0  0  0
   -2.2362   -0.1318    0.0117 C   0  0  0  0  0  0  0  0  0  0  0  0
   -1.6744    1.1426   -0.0570 C   0  0  0  0  0  0  0  0  0  0  0  0
   -2.4715    2.3646   -0.0810 C   0  0  0  0  0  0  0  0  0  0  0  0
   -3.7797    2.4612    0.1219 C   0  0  0  0  0  0  0  0  0  0  0  0
   -0.2822    1.2448   -0.1093 C   0  0  0  0  0  0  0  0  0  0  0  0
    0.4859    0.1011   -0.0842 C   0  0  0  0  0  0  0  0  0  0  0  0
    2.2727    0.2538   -0.0921 S   0  0  0  0  0  0  0  0  0  0  0  0
    2.6750    0.3921    1.6772 C   0  0  0  0  0  0  0  0  0  0  0  0
    2.8478   -0.9679   -0.5868 O   0  0  0  0  0  0  0  0  0  0  0  0
    2.6405    1.4875   -0.7323 O   0  0  0  0  0  0  0  0  0  0  0  0
   -0.0705   -1.1565   -0.0201 C   0  0  0  0  0  0  0  0  0  0  0  0
   -2.1163   -4.6843   -0.0079 H   0  0  0  0  0  0  0  0  0  0  0  0
   -0.4879   -3.8880   -0.2275 H   0  0  0  0  0  0  0  0  0  0  0  0
   -3.1971   -2.5396    0.2291 H   0  0  0  0  0  0  0  0  0  0  0  0
   -3.3107   -0.2333    0.0386 H   0  0  0  0  0  0  0  0  0  0  0  0
   -1.9010    3.2637   -0.2765 H   0  0  0  0  0  0  0  0  0  0  0  0
   -4.4036    1.6103    0.3351 H   0  0  0  0  0  0  0  0  0  0  0  0
   -4.2805    3.4132    0.0868 H   0  0  0  0  0  0  0  0  0  0  0  0
    0.2105    2.2021   -0.1825 H   0  0  0  0  0  0  0  0  0  0  0  0
    2.3378   -0.5109    2.1688 H   0  0  0  0  0  0  0  0  0  0  0  0
    2.1730    1.2673    2.0681 H   0  0  0  0  0  0  0  0  0  0  0  0
    3.7491    0.4968    1.7653 H   0  0  0  0  0  0  0  0  0  0  0  0
    0.5885   -2.0088   -0.0200 H   0  0  0  0  0  0  0  0  0  0  0  0
  1  2  2  0  0  0  0
  2  3  1  0  0  0  0
  3  4  4  0  0  0  0
  4  5  4  0  0  0  0
  5  6  1  0  0  0  0
  6  7  2  0  0  0  0
  5  8  4  0  0  0  0
  8  9  4  0  0  0  0
  9 10  1  0  0  0  0
 10 11  1  0  0  0  0
 10 12  2  0  0  0  0
 10 13  2  0  0  0  0
  3 14  4  0  0  0  0
  9 14  4  0  0  0  0
  1 15  1  0  0  0  0
  1 16  1  0  0  0  0
  2 17  1  0  0  0  0
  4 18  1  0  0  0  0
  6 19  1  0  0  0  0
  7 20  1  0  0  0  0
  7 21  1  0  0  0  0
  8 22  1  0  0  0  0
 11 23  1  0  0  0  0
 11 24  1  0  0  0  0
 11 25  1  0  0  0  0
 14 26  1  0  0  0  0
M  END
