
 OpenBabel02012214093D

 15 15  0  0  0  0  0  0  0  0999 V2000
    0.8561    0.0238   -0.0235 C   0  0  0  0  0  0  0  0  0  0  0  0
    2.3382   -0.0197   -0.0210 C   0  0  0  0  0  0  0  0  0  0  0  0
    3.2038    1.0545   -0.0160 C   0  0  0  0  0  0  0  0  0  0  0  0
    4.4933    0.6346   -0.0127 O   0  0  0  0  0  0  0  0  0  0  0  0
    4.4664   -0.7199   -0.0166 C   0  0  0  0  0  0  0  0  0  0  0  0
    3.1679   -1.1857   -0.0229 C   0  0  0  0  0  0  0  0  0  0  0  0
    2.7234   -2.6001   -0.0307 C   0  0  0  0  0  0  0  0  0  0  0  0
    0.4856    1.0534   -0.0240 H   0  0  0  0  0  0  0  0  0  0  0  0
    0.4592   -0.4798    0.8638 H   0  0  0  0  0  0  0  0  0  0  0  0
    0.4617   -0.4800   -0.9117 H   0  0  0  0  0  0  0  0  0  0  0  0
    3.0642    2.1263   -0.0138 H   0  0  0  0  0  0  0  0  0  0  0  0
    5.4335   -1.2034   -0.0143 H   0  0  0  0  0  0  0  0  0  0  0  0
    3.5752   -3.2875   -0.0275 H   0  0  0  0  0  0  0  0  0  0  0  0
    2.1239   -2.8059   -0.9230 H   0  0  0  0  0  0  0  0  0  0  0  0
    2.1121   -2.8124    0.8523 H   0  0  0  0  0  0  0  0  0  0  0  0
  1  2  1  0  0  0  0
  1  8  1  0  0  0  0
  1  9  1  0  0  0  0
  1 10  1  0  0  0  0
  2  3  2  0  0  0  0
  2  6  1  0  0  0  0
  3  4  1  0  0  0  0
  3 11  1  0  0  0  0
  4  5  1  0  0  0  0
  5  6  2  0  0  0  0
  5 12  1  0  0  0  0
  6  7  1  0  0  0  0
  7 13  1  0  0  0  0
  7 14  1  0  0  0  0
  7 15  1  0  0  0  0
M  END
