
  xtb     02032211343D
 xtb: 6.4.1 (23d549d)
 20 20  0     0  0            999 V2000
   -0.0123    3.8458   -0.0539 C   0  0  0  0  0  0  0  0  0  0  0  0
   -1.0034    2.9673    0.0352 C   0  0  0  0  0  0  0  0  0  0  0  0
   -0.8821    1.5129    0.0230 C   0  0  0  0  0  0  0  0  0  0  0  0
   -2.0501    0.7484    0.0146 C   0  0  0  0  0  0  0  0  0  0  0  0
   -1.9708   -0.6321   -0.0002 C   0  0  0  0  0  0  0  0  0  0  0  0
   -3.4254   -1.5690   -0.0127 Cl  0  0  0  0  0  0  0  0  0  0  0  0
   -0.7493   -1.2789   -0.0041 C   0  0  0  0  0  0  0  0  0  0  0  0
    0.4294   -0.5287    0.0076 C   0  0  0  0  0  0  0  0  0  0  0  0
    1.6896   -1.2571    0.0052 C   0  0  0  0  0  0  0  0  0  0  0  0
    2.9227   -0.7727    0.0002 C   0  0  0  0  0  0  0  0  0  0  0  0
    3.3031    0.4985   -0.0038 F   0  0  0  0  0  0  0  0  0  0  0  0
    4.0057   -1.5450   -0.0026 F   0  0  0  0  0  0  0  0  0  0  0  0
    0.3493    0.8611    0.0220 C   0  0  0  0  0  0  0  0  0  0  0  0
   -0.2051    4.9046   -0.0385 H   0  0  0  0  0  0  0  0  0  0  0  0
    1.0203    3.5577   -0.1485 H   0  0  0  0  0  0  0  0  0  0  0  0
   -2.0201    3.3300    0.1183 H   0  0  0  0  0  0  0  0  0  0  0  0
   -3.0152    1.2311    0.0173 H   0  0  0  0  0  0  0  0  0  0  0  0
   -0.7102   -2.3567   -0.0147 H   0  0  0  0  0  0  0  0  0  0  0  0
    1.6223   -2.3353    0.0057 H   0  0  0  0  0  0  0  0  0  0  0  0
    1.2505    1.4482    0.0379 H   0  0  0  0  0  0  0  0  0  0  0  0
  1  2  2  0  0  0  0
  2  3  1  0  0  0  0
  3  4  4  0  0  0  0
  4  5  4  0  0  0  0
  5  6  1  0  0  0  0
  5  7  4  0  0  0  0
  7  8  4  0  0  0  0
  8  9  1  0  0  0  0
  9 10  2  0  0  0  0
 10 11  1  0  0  0  0
 10 12  1  0  0  0  0
  3 13  4  0  0  0  0
  8 13  4  0  0  0  0
  1 14  1  0  0  0  0
  1 15  1  0  0  0  0
  2 16  1  0  0  0  0
  4 17  1  0  0  0  0
  7 18  1  0  0  0  0
  9 19  1  0  0  0  0
 13 20  1  0  0  0  0
M  END
