23

C          2.04163        0.64508       -1.04170
C          2.39630       -0.01650        0.06900
C          3.16660       -1.28110        0.10120
C          2.47080       -2.49760        0.07720
C          3.14650       -3.71110        0.08790
C          4.53630       -3.72870        0.10660
C          5.28340       -2.53730        0.09080
C          6.75740       -2.62770        0.14820
C          7.59646       -1.73440        0.68907
F          7.15167       -0.60033        1.26955
F          8.92294       -1.97746        0.64641
C          4.59350       -1.29280        0.09410
C          5.33270        0.02840        0.08970
H          1.47817        1.57046       -0.97070
H          2.28545        0.29559       -2.03898
H          2.09841        0.39975        1.02772
H          1.38350       -2.51730        0.04310
H          2.59030       -4.64480        0.08200
H          5.02940       -4.69790        0.13550
H          7.20803       -3.50464       -0.30145
H          6.41910       -0.06900        0.08160
H          5.07050        0.60670        0.98260
H          5.07570        0.60170       -0.80700
23

C          1.95791        0.64980        1.14649
C          2.39630       -0.01650        0.06900
C          3.16660       -1.28110        0.10120
C          2.47080       -2.49760        0.07720
C          3.14650       -3.71110        0.08790
C          4.53630       -3.72870        0.10660
C          5.28340       -2.53730        0.09080
C          6.75740       -2.62770        0.14820
C          7.63619       -1.77366       -0.39300
F          7.23813       -0.68347       -1.08142
F          8.95533       -2.01637       -0.24671
C          4.59350       -1.29280        0.09410
C          5.33270        0.02840        0.08970
H          1.39528        1.57087        1.02847
H          2.14443        0.31665        2.16157
H          2.17483        0.39692       -0.91140
H          1.38350       -2.51730        0.04310
H          2.59030       -4.64480        0.08200
H          5.02940       -4.69790        0.13550
H          7.17156       -3.47833        0.67657
H          6.41910       -0.06900        0.08160
H          5.07050        0.60670        0.98260
H          5.07570        0.60170       -0.80700
23

C          2.04163        0.64508       -1.04170
C          2.39630       -0.01650        0.06900
C          3.16660       -1.28110        0.10120
C          2.47080       -2.49760        0.07720
C          3.14650       -3.71110        0.08790
C          4.53630       -3.72870        0.10660
C          5.28340       -2.53730        0.09080
C          6.75740       -2.62770        0.14820
C          7.51961       -2.63140        1.24982
F          6.98471       -2.55026        2.48603
F          8.85949       -2.71463        1.11477
C          4.59350       -1.29280        0.09410
C          5.33270        0.02840        0.08970
H          1.47817        1.57046       -0.97070
H          2.28545        0.29559       -2.03898
H          2.09841        0.39975        1.02772
H          1.38350       -2.51730        0.04310
H          2.59030       -4.64480        0.08200
H          5.02940       -4.69790        0.13550
H          7.27746       -2.68939       -0.80049
H          6.41910       -0.06900        0.08160
H          5.07050        0.60670        0.98260
H          5.07570        0.60170       -0.80700
23

C          1.95791        0.64980        1.14649
C          2.39630       -0.01650        0.06900
C          3.16660       -1.28110        0.10120
C          2.47080       -2.49760        0.07720
C          3.14650       -3.71110        0.08790
C          4.53630       -3.72870        0.10660
C          5.28340       -2.53730        0.09080
C          6.75740       -2.62770        0.14820
C          7.59823       -2.70909       -0.89148
F          7.15579       -2.71478       -2.16628
F          8.92359       -2.79163       -0.65263
C          4.59350       -1.29280        0.09410
C          5.33270        0.02840        0.08970
H          1.39528        1.57087        1.02847
H          2.14443        0.31665        2.16157
H          2.17483        0.39692       -0.91140
H          1.38350       -2.51730        0.04310
H          2.59030       -4.64480        0.08200
H          5.02940       -4.69790        0.13550
H          7.20529       -2.63732        1.13490
H          6.41910       -0.06900        0.08160
H          5.07050        0.60670        0.98260
H          5.07570        0.60170       -0.80700
23

C          1.95791        0.64980        1.14649
C          2.39630       -0.01650        0.06900
C          3.16660       -1.28110        0.10120
C          2.47080       -2.49760        0.07720
C          3.14650       -3.71110        0.08790
C          4.53630       -3.72870        0.10660
C          5.28340       -2.53730        0.09080
C          6.75740       -2.62770        0.14820
C          7.59646       -1.73440        0.68907
F          7.15167       -0.60033        1.26955
F          8.92294       -1.97746        0.64641
C          4.59350       -1.29280        0.09410
C          5.33270        0.02840        0.08970
H          1.39528        1.57087        1.02847
H          2.14443        0.31665        2.16157
H          2.17483        0.39692       -0.91140
H          1.38350       -2.51730        0.04310
H          2.59030       -4.64480        0.08200
H          5.02940       -4.69790        0.13550
H          7.20803       -3.50464       -0.30145
H          6.41910       -0.06900        0.08160
H          5.07050        0.60670        0.98260
H          5.07570        0.60170       -0.80700
23

C          2.04163        0.64508       -1.04170
C          2.39630       -0.01650        0.06900
C          3.16660       -1.28110        0.10120
C          2.47080       -2.49760        0.07720
C          3.14650       -3.71110        0.08790
C          4.53630       -3.72870        0.10660
C          5.28340       -2.53730        0.09080
C          6.75740       -2.62770        0.14820
C          7.63619       -1.77366       -0.39300
F          7.23813       -0.68347       -1.08142
F          8.95533       -2.01637       -0.24671
C          4.59350       -1.29280        0.09410
C          5.33270        0.02840        0.08970
H          1.47817        1.57046       -0.97070
H          2.28545        0.29559       -2.03898
H          2.09841        0.39975        1.02772
H          1.38350       -2.51730        0.04310
H          2.59030       -4.64480        0.08200
H          5.02940       -4.69790        0.13550
H          7.17156       -3.47833        0.67657
H          6.41910       -0.06900        0.08160
H          5.07050        0.60670        0.98260
H          5.07570        0.60170       -0.80700
23

C          1.95791        0.64980        1.14649
C          2.39630       -0.01650        0.06900
C          3.16660       -1.28110        0.10120
C          2.47080       -2.49760        0.07720
C          3.14650       -3.71110        0.08790
C          4.53630       -3.72870        0.10660
C          5.28340       -2.53730        0.09080
C          6.75740       -2.62770        0.14820
C          7.51961       -2.63140        1.24982
F          6.98471       -2.55026        2.48603
F          8.85949       -2.71463        1.11477
C          4.59350       -1.29280        0.09410
C          5.33270        0.02840        0.08970
H          1.39528        1.57087        1.02847
H          2.14443        0.31665        2.16157
H          2.17483        0.39692       -0.91140
H          1.38350       -2.51730        0.04310
H          2.59030       -4.64480        0.08200
H          5.02940       -4.69790        0.13550
H          7.27746       -2.68939       -0.80049
H          6.41910       -0.06900        0.08160
H          5.07050        0.60670        0.98260
H          5.07570        0.60170       -0.80700
23

C          2.04163        0.64508       -1.04170
C          2.39630       -0.01650        0.06900
C          3.16660       -1.28110        0.10120
C          2.47080       -2.49760        0.07720
C          3.14650       -3.71110        0.08790
C          4.53630       -3.72870        0.10660
C          5.28340       -2.53730        0.09080
C          6.75740       -2.62770        0.14820
C          7.59823       -2.70909       -0.89148
F          7.15579       -2.71478       -2.16628
F          8.92359       -2.79163       -0.65263
C          4.59350       -1.29280        0.09410
C          5.33270        0.02840        0.08970
H          1.47817        1.57046       -0.97070
H          2.28545        0.29559       -2.03898
H          2.09841        0.39975        1.02772
H          1.38350       -2.51730        0.04310
H          2.59030       -4.64480        0.08200
H          5.02940       -4.69790        0.13550
H          7.20529       -2.63732        1.13490
H          6.41910       -0.06900        0.08160
H          5.07050        0.60670        0.98260
H          5.07570        0.60170       -0.80700
23

C          2.77905        1.13695        0.63485
C          2.39630       -0.01650        0.06900
C          3.16660       -1.28110        0.10120
C          2.47080       -2.49760        0.07720
C          3.14650       -3.71110        0.08790
C          4.53630       -3.72870        0.10660
C          5.28340       -2.53730        0.09080
C          6.75740       -2.62770        0.14820
C          7.59823       -2.70909       -0.89148
F          7.15579       -2.71478       -2.16628
F          8.92359       -2.79163       -0.65263
C          4.59350       -1.29280        0.09410
C          5.33270        0.02840        0.08970
H          2.14703        2.01697        0.56424
H          3.71596        1.24865        1.16952
H          1.44662       -0.03513       -0.45911
H          1.38350       -2.51730        0.04310
H          2.59030       -4.64480        0.08200
H          5.02940       -4.69790        0.13550
H          7.20529       -2.63732        1.13490
H          6.41910       -0.06900        0.08160
H          5.07050        0.60670        0.98260
H          5.07570        0.60170       -0.80700
23

C          2.77905        1.13695        0.63485
C          2.39630       -0.01650        0.06900
C          3.16660       -1.28110        0.10120
C          2.47080       -2.49760        0.07720
C          3.14650       -3.71110        0.08790
C          4.53630       -3.72870        0.10660
C          5.28340       -2.53730        0.09080
C          6.75740       -2.62770        0.14820
C          7.63619       -1.77366       -0.39300
F          7.23813       -0.68347       -1.08142
F          8.95533       -2.01637       -0.24671
C          4.59350       -1.29280        0.09410
C          5.33270        0.02840        0.08970
H          2.14703        2.01697        0.56424
H          3.71596        1.24865        1.16952
H          1.44662       -0.03513       -0.45911
H          1.38350       -2.51730        0.04310
H          2.59030       -4.64480        0.08200
H          5.02940       -4.69790        0.13550
H          7.17156       -3.47833        0.67657
H          6.41910       -0.06900        0.08160
H          5.07050        0.60670        0.98260
H          5.07570        0.60170       -0.80700
