
 OpenBabel02032211253D

 21 21  0  0  0  0  0  0  0  0999 V2000
    2.2638   -1.1301   -0.5859 C   0  0  0  0  0  0  0  0  0  0  0  0
    2.4252    0.0634    0.0025 C   0  0  0  0  0  0  0  0  0  0  0  0
    3.1158    1.2119   -0.6096 C   0  0  0  0  0  0  0  0  0  0  0  0
    4.1942    1.0169   -1.4952 C   0  0  0  0  0  0  0  0  0  0  0  0
    4.8700    2.0920   -2.0993 C   0  0  0  0  0  0  0  0  0  0  0  0
    5.9810    1.9037   -3.0512 C   0  0  0  0  0  0  0  0  0  0  0  0
    6.4857    0.7368   -3.4755 C   0  0  0  0  0  0  0  0  0  0  0  0
    4.4549    3.3900   -1.7720 C   0  0  0  0  0  0  0  0  0  0  0  0
    5.0639    4.4541   -2.3206 F   0  0  0  0  0  0  0  0  0  0  0  0
    3.4140    3.6004   -0.8760 C   0  0  0  0  0  0  0  0  0  0  0  0
    3.0343    4.8503   -0.5608 F   0  0  0  0  0  0  0  0  0  0  0  0
    2.7505    2.5254   -0.2917 C   0  0  0  0  0  0  0  0  0  0  0  0
    1.7281    2.7698    0.5910 O   0  0  0  0  0  0  0  0  0  0  0  0
    1.7325   -1.9267   -0.0743 H   0  0  0  0  0  0  0  0  0  0  0  0
    2.6271   -1.3482   -1.5846 H   0  0  0  0  0  0  0  0  0  0  0  0
    2.0022    0.2307    0.9913 H   0  0  0  0  0  0  0  0  0  0  0  0
    4.5116   -0.0002   -1.7073 H   0  0  0  0  0  0  0  0  0  0  0  0
    6.4195    2.8200   -3.4463 H   0  0  0  0  0  0  0  0  0  0  0  0
    6.1226   -0.2309   -3.1501 H   0  0  0  0  0  0  0  0  0  0  0  0
    7.3062    0.7277   -4.1881 H   0  0  0  0  0  0  0  0  0  0  0  0
    1.6250    3.7383    0.6582 H   0  0  0  0  0  0  0  0  0  0  0  0
  1  2  2  0  0  0  0
  1 14  1  0  0  0  0
  1 15  1  0  0  0  0
  2  3  1  0  0  0  0
  2 16  1  0  0  0  0
  3  4  1  0  0  0  0
  3 12  2  0  0  0  0
  4  5  2  0  0  0  0
  4 17  1  0  0  0  0
  5  6  1  0  0  0  0
  5  8  1  0  0  0  0
  6  7  2  0  0  0  0
  6 18  1  0  0  0  0
  7 19  1  0  0  0  0
  7 20  1  0  0  0  0
  8  9  1  0  0  0  0
  8 10  2  0  0  0  0
 10 11  1  0  0  0  0
 10 12  1  0  0  0  0
 12 13  1  0  0  0  0
 13 21  1  0  0  0  0
M  END
