 xtb: 6.5.0 (unknown)
          08112218553D

 24  0  0     0  0            999 V2000
   -2.4489    3.2422    0.0151 C   0  0  0  0  0  0  0  0  0  0  0  0
   -2.8476    1.9759   -0.0028 C   0  0  0  0  0  0  0  0  0  0  0  0
   -1.9976    0.7921   -0.0028 C   0  0  0  0  0  0  0  0  0  0  0  0
   -2.5894   -0.4699   -0.0071 C   0  0  0  0  0  0  0  0  0  0  0  0
   -1.8275   -1.6226   -0.0055 C   0  0  0  0  0  0  0  0  0  0  0  0
   -0.4405   -1.5513   -0.0003 C   0  0  0  0  0  0  0  0  0  0  0  0
    0.3812   -2.6362    0.0019 O   0  0  0  0  0  0  0  0  0  0  0  0
   -0.1902   -3.9220    0.0034 C   0  0  0  0  0  0  0  0  0  0  0  0
    0.1851   -0.2834    0.0022 C   0  0  0  0  0  0  0  0  0  0  0  0
    1.6385   -0.2470    0.0067 C   0  0  0  0  0  0  0  0  0  0  0  0
    2.4400    0.8065   -0.0007 C   0  0  0  0  0  0  0  0  0  0  0  0
    2.1109    2.0956   -0.0140 F   0  0  0  0  0  0  0  0  0  0  0  0
    3.7702    0.7081    0.0044 F   0  0  0  0  0  0  0  0  0  0  0  0
   -0.6058    0.8579    0.0012 C   0  0  0  0  0  0  0  0  0  0  0  0
   -3.1601    4.0502    0.0141 H   0  0  0  0  0  0  0  0  0  0  0  0
   -1.4118    3.5289    0.0320 H   0  0  0  0  0  0  0  0  0  0  0  0
   -3.9096    1.7617   -0.0178 H   0  0  0  0  0  0  0  0  0  0  0  0
   -3.6667   -0.5539   -0.0112 H   0  0  0  0  0  0  0  0  0  0  0  0
   -2.3280   -2.5780   -0.0085 H   0  0  0  0  0  0  0  0  0  0  0  0
    0.6499   -4.6150    0.0085 H   0  0  0  0  0  0  0  0  0  0  0  0
   -0.7947   -4.0949   -0.8925 H   0  0  0  0  0  0  0  0  0  0  0  0
   -0.8016   -4.0897    0.8955 H   0  0  0  0  0  0  0  0  0  0  0  0
    2.1314   -1.2072    0.0164 H   0  0  0  0  0  0  0  0  0  0  0  0
   -0.1296    1.8226    0.0034 H   0  0  0  0  0  0  0  0  0  0  0  0
M  END
