
 OpenBabel02012214033D

 45 45  0  0  0  0  0  0  0  0999 V2000
    0.9697   -0.0827    0.0073 C   0  0  0  0  0  0  0  0  0  0  0  0
    2.4950   -0.0757   -0.0072 C   0  0  0  0  0  0  0  0  0  0  0  0
    3.0332   -0.1109   -1.4422 C   0  0  0  0  0  0  0  0  0  0  0  0
    4.5662   -0.1038   -1.4528 C   0  0  0  0  0  0  0  0  0  0  0  0
    5.1045   -0.1395   -2.8875 C   0  0  0  0  0  0  0  0  0  0  0  0
    6.6375   -0.1346   -2.8991 C   0  0  0  0  0  0  0  0  0  0  0  0
    7.1727   -0.1719   -4.3350 C   0  0  0  0  0  0  0  0  0  0  0  0
    8.7063   -0.1686   -4.3539 C   0  0  0  0  0  0  0  0  0  0  0  0
    9.2304   -0.2138   -5.7937 C   0  0  0  0  0  0  0  0  0  0  0  0
   10.7624   -0.1941   -5.8321 C   0  0  0  0  0  0  0  0  0  0  0  0
   11.2465   -0.2446   -7.2556 C   0  0  0  0  0  0  0  0  0  0  0  0
   11.5116    0.9123   -8.0068 C   0  0  0  0  0  0  0  0  0  0  0  0
   11.9269    0.6370   -9.3046 C   0  0  0  0  0  0  0  0  0  0  0  0
   12.2674    1.6445  -10.3511 C   0  0  0  0  0  0  0  0  0  0  0  0
   11.9761   -1.0270   -9.5289 S   0  0  0  0  0  0  0  0  0  0  0  0
   11.4632   -1.4234   -7.9763 C   0  0  0  0  0  0  0  0  0  0  0  0
   11.2838   -2.8216   -7.4797 C   0  0  0  0  0  0  0  0  0  0  0  0
    0.6076   -0.0568    1.0569 H   0  0  0  0  0  0  0  0  0  0  0  0
    0.5835   -1.0033   -0.4800 H   0  0  0  0  0  0  0  0  0  0  0  0
    0.5747    0.8073   -0.5276 H   0  0  0  0  0  0  0  0  0  0  0  0
    2.8640   -0.9632    0.5518 H   0  0  0  0  0  0  0  0  0  0  0  0
    2.8553    0.8436    0.5043 H   0  0  0  0  0  0  0  0  0  0  0  0
    2.6581    0.7777   -1.9968 H   0  0  0  0  0  0  0  0  0  0  0  0
    2.6666   -1.0306   -1.9492 H   0  0  0  0  0  0  0  0  0  0  0  0
    4.9410   -0.9926   -0.8982 H   0  0  0  0  0  0  0  0  0  0  0  0
    4.9330    0.8157   -0.9458 H   0  0  0  0  0  0  0  0  0  0  0  0
    4.7302    0.7496   -3.4420 H   0  0  0  0  0  0  0  0  0  0  0  0
    4.7364   -1.0588   -3.3946 H   0  0  0  0  0  0  0  0  0  0  0  0
    7.0120   -1.0236   -2.3445 H   0  0  0  0  0  0  0  0  0  0  0  0
    7.0062    0.7850   -2.3930 H   0  0  0  0  0  0  0  0  0  0  0  0
    6.7965    0.7159   -4.8892 H   0  0  0  0  0  0  0  0  0  0  0  0
    6.8023   -1.0921   -4.8395 H   0  0  0  0  0  0  0  0  0  0  0  0
    9.0847   -1.0552   -3.7984 H   0  0  0  0  0  0  0  0  0  0  0  0
    9.0781    0.7533   -3.8540 H   0  0  0  0  0  0  0  0  0  0  0  0
    8.8440    0.6671   -6.3519 H   0  0  0  0  0  0  0  0  0  0  0  0
    8.8586   -1.1381   -6.2862 H   0  0  0  0  0  0  0  0  0  0  0  0
   11.1843   -1.0468   -5.2591 H   0  0  0  0  0  0  0  0  0  0  0  0
   11.1258    0.7411   -5.3517 H   0  0  0  0  0  0  0  0  0  0  0  0
   11.3945    1.9163   -7.6182 H   0  0  0  0  0  0  0  0  0  0  0  0
   12.1518    2.6759   -9.9559 H   0  0  0  0  0  0  0  0  0  0  0  0
   11.5906    1.5140  -11.2208 H   0  0  0  0  0  0  0  0  0  0  0  0
   13.3171    1.4973  -10.6794 H   0  0  0  0  0  0  0  0  0  0  0  0
   11.5373   -3.5484   -8.2801 H   0  0  0  0  0  0  0  0  0  0  0  0
   10.2304   -2.9823   -7.1715 H   0  0  0  0  0  0  0  0  0  0  0  0
   11.9541   -3.0005   -6.6132 H   0  0  0  0  0  0  0  0  0  0  0  0
  1  2  1  0  0  0  0
  1 18  1  0  0  0  0
  1 19  1  0  0  0  0
  1 20  1  0  0  0  0
  2  3  1  0  0  0  0
  2 21  1  0  0  0  0
  2 22  1  0  0  0  0
  3  4  1  0  0  0  0
  3 23  1  0  0  0  0
  3 24  1  0  0  0  0
  4  5  1  0  0  0  0
  4 25  1  0  0  0  0
  4 26  1  0  0  0  0
  5  6  1  0  0  0  0
  5 27  1  0  0  0  0
  5 28  1  0  0  0  0
  6  7  1  0  0  0  0
  6 29  1  0  0  0  0
  6 30  1  0  0  0  0
  7  8  1  0  0  0  0
  7 31  1  0  0  0  0
  7 32  1  0  0  0  0
  8  9  1  0  0  0  0
  8 33  1  0  0  0  0
  8 34  1  0  0  0  0
  9 10  1  0  0  0  0
  9 35  1  0  0  0  0
  9 36  1  0  0  0  0
 10 11  1  0  0  0  0
 10 37  1  0  0  0  0
 10 38  1  0  0  0  0
 11 12  1  0  0  0  0
 11 16  2  0  0  0  0
 12 13  2  0  0  0  0
 12 39  1  0  0  0  0
 13 14  1  0  0  0  0
 13 15  1  0  0  0  0
 14 40  1  0  0  0  0
 14 41  1  0  0  0  0
 14 42  1  0  0  0  0
 15 16  1  0  0  0  0
 16 17  1  0  0  0  0
 17 43  1  0  0  0  0
 17 44  1  0  0  0  0
 17 45  1  0  0  0  0
M  END
