
  xtb     02012214033D
 xtb: 6.4.1 (23d549d)
 45 45  0     0  0            999 V2000
    6.6400    6.4022   -1.6246 c   0  0  0  0  0  0  0  0  0  0  0  0
    6.1759    5.2223   -2.4697 c   0  0  0  0  0  0  0  0  0  0  0  0
    6.7107    3.8951   -1.9374 c   0  0  0  0  0  0  0  0  0  0  0  0
    6.3482    2.7218   -2.8448 c   0  0  0  0  0  0  0  0  0  0  0  0
    6.7706    1.3867   -2.2364 c   0  0  0  0  0  0  0  0  0  0  0  0
    6.3721    0.1767   -3.0830 c   0  0  0  0  0  0  0  0  0  0  0  0
    7.0917    0.0695   -4.4285 c   0  0  0  0  0  0  0  0  0  0  0  0
    8.6026   -0.0958   -4.2811 c   0  0  0  0  0  0  0  0  0  0  0  0
    9.2980   -0.4946   -5.5820 c   0  0  0  0  0  0  0  0  0  0  0  0
    9.2271    0.5815   -6.6739 c   0  0  0  0  0  0  0  0  0  0  0  0
    9.6934    1.9269   -6.2052 c   0  0  0  0  0  0  0  0  0  0  0  0
    8.8194    3.0409   -6.0688 c   0  0  0  0  0  0  0  0  0  0  0  0
    9.4235    4.1723   -5.6300 c   0  0  0  0  0  0  0  0  0  0  0  0
    8.8315    5.5145   -5.3862 c   0  0  0  0  0  0  0  0  0  0  0  0
   11.1166    3.8947   -5.3613 s   0  0  0  0  0  0  0  0  0  0  0  0
   10.9764    2.2358   -5.8668 c   0  0  0  0  0  0  0  0  0  0  0  0
   12.1883    1.3713   -5.8780 c   0  0  0  0  0  0  0  0  0  0  0  0
    6.2508    7.3370   -2.0219 h   0  0  0  0  0  0  0  0  0  0  0  0
    7.7266    6.4601   -1.6139 h   0  0  0  0  0  0  0  0  0  0  0  0
    6.2958    6.2955   -0.5982 h   0  0  0  0  0  0  0  0  0  0  0  0
    6.5125    5.3587   -3.4992 h   0  0  0  0  0  0  0  0  0  0  0  0
    5.0838    5.1919   -2.4817 h   0  0  0  0  0  0  0  0  0  0  0  0
    6.3059    3.7212   -0.9373 h   0  0  0  0  0  0  0  0  0  0  0  0
    7.7982    3.9536   -1.8466 h   0  0  0  0  0  0  0  0  0  0  0  0
    6.8379    2.8614   -3.8097 h   0  0  0  0  0  0  0  0  0  0  0  0
    5.2682    2.7142   -3.0132 h   0  0  0  0  0  0  0  0  0  0  0  0
    6.2983    1.2867   -1.2553 h   0  0  0  0  0  0  0  0  0  0  0  0
    7.8500    1.3865   -2.0775 h   0  0  0  0  0  0  0  0  0  0  0  0
    5.2947    0.2158   -3.2641 h   0  0  0  0  0  0  0  0  0  0  0  0
    6.5749   -0.7306   -2.5075 h   0  0  0  0  0  0  0  0  0  0  0  0
    6.8731    0.9517   -5.0291 h   0  0  0  0  0  0  0  0  0  0  0  0
    6.6920   -0.7989   -4.9598 h   0  0  0  0  0  0  0  0  0  0  0  0
    8.8000   -0.8692   -3.5340 h   0  0  0  0  0  0  0  0  0  0  0  0
    9.0426    0.8357   -3.9222 h   0  0  0  0  0  0  0  0  0  0  0  0
    8.8483   -1.4124   -5.9690 h   0  0  0  0  0  0  0  0  0  0  0  0
   10.3453   -0.7080   -5.3614 h   0  0  0  0  0  0  0  0  0  0  0  0
    8.1997    0.6721   -7.0288 h   0  0  0  0  0  0  0  0  0  0  0  0
    9.8415    0.2562   -7.5191 h   0  0  0  0  0  0  0  0  0  0  0  0
    7.7712    2.9946   -6.3113 h   0  0  0  0  0  0  0  0  0  0  0  0
    7.7879    5.5202   -5.6936 h   0  0  0  0  0  0  0  0  0  0  0  0
    9.3667    6.2786   -5.9494 h   0  0  0  0  0  0  0  0  0  0  0  0
    8.8902    5.7778   -4.3299 h   0  0  0  0  0  0  0  0  0  0  0  0
   13.0800    1.9728   -6.0423 h   0  0  0  0  0  0  0  0  0  0  0  0
   12.1144    0.6266   -6.6686 h   0  0  0  0  0  0  0  0  0  0  0  0
   12.3053    0.8509   -4.9259 h   0  0  0  0  0  0  0  0  0  0  0  0
  1  2  1  0  0  0  0
  2  3  1  0  0  0  0
  3  4  1  0  0  0  0
  4  5  1  0  0  0  0
  5  6  1  0  0  0  0
  6  7  1  0  0  0  0
  7  8  1  0  0  0  0
  8  9  1  0  0  0  0
  9 10  1  0  0  0  0
 10 11  1  0  0  0  0
 11 12  4  0  0  0  0
 12 13  2  0  0  0  0
 13 14  1  0  0  0  0
 13 15  1  0  0  0  0
 11 16  2  0  0  0  0
 15 16  1  0  0  0  0
 16 17  1  0  0  0  0
  1 18  1  0  0  0  0
  1 19  1  0  0  0  0
  1 20  1  0  0  0  0
  2 21  1  0  0  0  0
  2 22  1  0  0  0  0
  3 23  1  0  0  0  0
  3 24  1  0  0  0  0
  4 25  1  0  0  0  0
  4 26  1  0  0  0  0
  5 27  1  0  0  0  0
  5 28  1  0  0  0  0
  6 29  1  0  0  0  0
  6 30  1  0  0  0  0
  7 31  1  0  0  0  0
  7 32  1  0  0  0  0
  8 33  1  0  0  0  0
  8 34  1  0  0  0  0
  9 35  1  0  0  0  0
  9 36  1  0  0  0  0
 10 37  1  0  0  0  0
 10 38  1  0  0  0  0
 12 39  1  0  0  0  0
 14 40  1  0  0  0  0
 14 41  1  0  0  0  0
 14 42  1  0  0  0  0
 17 43  1  0  0  0  0
 17 44  1  0  0  0  0
 17 45  1  0  0  0  0
M  END
