
 OpenBabel02012213413D

 40 43  0  0  0  0  0  0  0  0999 V2000
    1.3539    0.0368    0.4516 C   0  0  0  0  0  0  0  0  0  0  0  0
    2.5346    0.0416   -0.2629 O   0  0  0  0  0  0  0  0  0  0  0  0
    3.2058    1.1467   -0.6807 C   0  0  0  0  0  0  0  0  0  0  0  0
    2.7938    2.4547   -0.3541 C   0  0  0  0  0  0  0  0  0  0  0  0
    3.5010    3.5821   -0.8263 C   0  0  0  0  0  0  0  0  0  0  0  0
    3.1158    4.9234   -0.4609 N   0  0  0  0  0  0  0  0  0  0  0  0
    4.2109    5.7646   -0.0415 C   0  0  0  0  0  0  0  0  0  0  0  0
    5.4303    5.7398   -0.7534 C   0  0  0  0  0  0  0  0  0  0  0  0
    5.6005    4.7532   -2.2374 S   0  0  0  0  0  0  0  0  0  0  0  0
    6.5175    6.5155   -0.3342 C   0  0  0  0  0  0  0  0  0  0  0  0
    6.4156    7.3094    0.8073 C   0  0  0  0  0  0  0  0  0  0  0  0
    5.2308    7.3228    1.5413 C   0  0  0  0  0  0  0  0  0  0  0  0
    4.1401    6.5522    1.1287 C   0  0  0  0  0  0  0  0  0  0  0  0
    1.7239    5.3753   -0.4738 C   0  0  0  0  0  0  0  0  0  0  0  0
    0.6709    4.5441   -0.9453 C   0  0  0  0  0  0  0  0  0  0  0  0
   -0.6557    4.9810   -0.9805 C   0  0  0  0  0  0  0  0  0  0  0  0
   -0.9872    6.2729   -0.5724 C   0  0  0  0  0  0  0  0  0  0  0  0
   -2.4091    6.7512   -0.6045 C   0  0  0  0  0  0  0  0  0  0  0  0
    0.0271    7.1321   -0.1525 C   0  0  0  0  0  0  0  0  0  0  0  0
    1.3564    6.7010   -0.1152 C   0  0  0  0  0  0  0  0  0  0  0  0
    4.6619    3.3678   -1.5969 C   0  0  0  0  0  0  0  0  0  0  0  0
    5.0751    2.0705   -1.9140 C   0  0  0  0  0  0  0  0  0  0  0  0
    4.3495    0.9696   -1.4622 C   0  0  0  0  0  0  0  0  0  0  0  0
    1.0445   -1.0129    0.6333 H   0  0  0  0  0  0  0  0  0  0  0  0
    0.5547    0.5448   -0.1303 H   0  0  0  0  0  0  0  0  0  0  0  0
    1.4919    0.5402    1.4315 H   0  0  0  0  0  0  0  0  0  0  0  0
    1.9361    2.5942    0.2872 H   0  0  0  0  0  0  0  0  0  0  0  0
    7.4437    6.5044   -0.8948 H   0  0  0  0  0  0  0  0  0  0  0  0
    7.2593    7.9066    1.1290 H   0  0  0  0  0  0  0  0  0  0  0  0
    5.1596    7.9235    2.4389 H   0  0  0  0  0  0  0  0  0  0  0  0
    3.2538    6.5561    1.7482 H   0  0  0  0  0  0  0  0  0  0  0  0
    0.8324    3.5496   -1.3177 H   0  0  0  0  0  0  0  0  0  0  0  0
   -1.4235    4.3057   -1.3376 H   0  0  0  0  0  0  0  0  0  0  0  0
   -3.0978    5.9592   -0.9681 H   0  0  0  0  0  0  0  0  0  0  0  0
   -2.4936    7.6281   -1.2803 H   0  0  0  0  0  0  0  0  0  0  0  0
   -2.7251    7.0479    0.4178 H   0  0  0  0  0  0  0  0  0  0  0  0
   -0.2097    8.1482    0.1411 H   0  0  0  0  0  0  0  0  0  0  0  0
    2.0683    7.4464    0.1826 H   0  0  0  0  0  0  0  0  0  0  0  0
    5.9597    1.9134   -2.5185 H   0  0  0  0  0  0  0  0  0  0  0  0
    4.6798   -0.0292   -1.7190 H   0  0  0  0  0  0  0  0  0  0  0  0
  1  2  1  0  0  0  0
  1 24  1  0  0  0  0
  1 25  1  0  0  0  0
  1 26  1  0  0  0  0
  2  3  1  0  0  0  0
  3  4  1  0  0  0  0
  3 23  2  0  0  0  0
  4  5  2  0  0  0  0
  4 27  1  0  0  0  0
  5  6  1  0  0  0  0
  5 21  1  0  0  0  0
  6  7  1  0  0  0  0
  6 14  1  0  0  0  0
  7  8  1  0  0  0  0
  7 13  2  0  0  0  0
  8  9  1  0  0  0  0
  8 10  2  0  0  0  0
  9 21  1  0  0  0  0
 10 11  1  0  0  0  0
 10 28  1  0  0  0  0
 11 12  2  0  0  0  0
 11 29  1  0  0  0  0
 12 13  1  0  0  0  0
 12 30  1  0  0  0  0
 13 31  1  0  0  0  0
 14 15  1  0  0  0  0
 14 20  2  0  0  0  0
 15 16  2  0  0  0  0
 15 32  1  0  0  0  0
 16 17  1  0  0  0  0
 16 33  1  0  0  0  0
 17 18  1  0  0  0  0
 17 19  2  0  0  0  0
 18 34  1  0  0  0  0
 18 35  1  0  0  0  0
 18 36  1  0  0  0  0
 19 20  1  0  0  0  0
 19 37  1  0  0  0  0
 20 38  1  0  0  0  0
 21 22  2  0  0  0  0
 22 23  1  0  0  0  0
 22 39  1  0  0  0  0
 23 40  1  0  0  0  0
M  END
