
  xtb     02032211343D
 xtb: 6.4.1 (23d549d)
 20 20  0     0  0            999 V2000
    4.5951    0.7502   -0.0496 C   0  0  0  0  0  0  0  0  0  0  0  0
    3.8184   -0.3240    0.0332 C   0  0  0  0  0  0  0  0  0  0  0  0
    2.3625   -0.3477    0.0181 C   0  0  0  0  0  0  0  0  0  0  0  0
    1.7047   -1.5796   -0.0252 C   0  0  0  0  0  0  0  0  0  0  0  0
    0.3296   -1.6529   -0.0469 C   0  0  0  0  0  0  0  0  0  0  0  0
   -0.4521   -0.4948   -0.0195 C   0  0  0  0  0  0  0  0  0  0  0  0
   -1.8968   -0.6415   -0.0420 C   0  0  0  0  0  0  0  0  0  0  0  0
   -2.8247    0.3038   -0.0013 C   0  0  0  0  0  0  0  0  0  0  0  0
   -2.6544    1.6188    0.0705 F   0  0  0  0  0  0  0  0  0  0  0  0
   -4.1312    0.0411   -0.0278 F   0  0  0  0  0  0  0  0  0  0  0  0
    0.2016    0.7393    0.0300 C   0  0  0  0  0  0  0  0  0  0  0  0
    1.5779    0.8074    0.0476 C   0  0  0  0  0  0  0  0  0  0  0  0
    5.6682    0.6661   -0.0335 H   0  0  0  0  0  0  0  0  0  0  0  0
    4.2033    1.7485   -0.1414 H   0  0  0  0  0  0  0  0  0  0  0  0
    4.2819   -1.3004    0.1107 H   0  0  0  0  0  0  0  0  0  0  0  0
    2.2871   -2.4899   -0.0461 H   0  0  0  0  0  0  0  0  0  0  0  0
   -0.1544   -2.6183   -0.0835 H   0  0  0  0  0  0  0  0  0  0  0  0
   -2.2771   -1.6517   -0.0974 H   0  0  0  0  0  0  0  0  0  0  0  0
   -0.3673    1.6543    0.0551 H   0  0  0  0  0  0  0  0  0  0  0  0
    2.0510    1.7759    0.0917 H   0  0  0  0  0  0  0  0  0  0  0  0
  1  2  2  0  0  0  0
  2  3  1  0  0  0  0
  3  4  4  0  0  0  0
  4  5  4  0  0  0  0
  5  6  4  0  0  0  0
  6  7  1  0  0  0  0
  7  8  2  0  0  0  0
  8  9  1  0  0  0  0
  8 10  1  0  0  0  0
  6 11  4  0  0  0  0
  3 12  4  0  0  0  0
 11 12  4  0  0  0  0
  1 13  1  0  0  0  0
  1 14  1  0  0  0  0
  2 15  1  0  0  0  0
  4 16  1  0  0  0  0
  5 17  1  0  0  0  0
  7 18  1  0  0  0  0
 11 19  1  0  0  0  0
 12 20  1  0  0  0  0
M  END
