
  xtb     02032211353D
 xtb: 6.4.1 (23d549d)
 21 21  0     0  0            999 V2000
    3.0837   -2.0704   -0.2280 C   0  0  0  0  0  0  0  0  0  0  0  0
    2.7155   -0.8704    0.2023 C   0  0  0  0  0  0  0  0  0  0  0  0
    1.3686   -0.3188    0.0954 C   0  0  0  0  0  0  0  0  0  0  0  0
    0.2396   -1.1214    0.1083 C   0  0  0  0  0  0  0  0  0  0  0  0
   -1.0578   -0.5985    0.0430 C   0  0  0  0  0  0  0  0  0  0  0  0
   -2.1953   -1.5047    0.0639 C   0  0  0  0  0  0  0  0  0  0  0  0
   -3.4823   -1.1948   -0.0452 C   0  0  0  0  0  0  0  0  0  0  0  0
   -1.1088    0.7956   -0.0217 C   0  0  0  0  0  0  0  0  0  0  0  0
   -2.2848    1.4438   -0.0621 F   0  0  0  0  0  0  0  0  0  0  0  0
   -0.0698    1.5916   -0.0513 N   0  0  0  0  0  0  0  0  0  0  0  0
    1.1550    1.0765   -0.0017 C   0  0  0  0  0  0  0  0  0  0  0  0
    2.1720    1.9813   -0.0143 N   0  0  0  0  0  0  0  0  0  0  0  0
    4.0917   -2.4276   -0.1069 H   0  0  0  0  0  0  0  0  0  0  0  0
    2.4000   -2.7344   -0.7291 H   0  0  0  0  0  0  0  0  0  0  0  0
    3.4459   -0.2292    0.6799 H   0  0  0  0  0  0  0  0  0  0  0  0
    0.3593   -2.1916    0.1957 H   0  0  0  0  0  0  0  0  0  0  0  0
   -1.9135   -2.5455    0.1771 H   0  0  0  0  0  0  0  0  0  0  0  0
   -3.8380   -0.1880   -0.1650 H   0  0  0  0  0  0  0  0  0  0  0  0
   -4.2354   -1.9643   -0.0177 H   0  0  0  0  0  0  0  0  0  0  0  0
    1.8998    2.9275   -0.2226 H   0  0  0  0  0  0  0  0  0  0  0  0
    3.0864    1.6877   -0.3082 H   0  0  0  0  0  0  0  0  0  0  0  0
  1  2  2  0  0  0  0
  2  3  1  0  0  0  0
  3  4  4  0  0  0  0
  4  5  4  0  0  0  0
  5  6  1  0  0  0  0
  6  7  2  0  0  0  0
  5  8  4  0  0  0  0
  8  9  1  0  0  0  0
  8 10  4  0  0  0  0
  3 11  4  0  0  0  0
 10 11  4  0  0  0  0
 11 12  4  0  0  0  0
  1 13  1  0  0  0  0
  1 14  1  0  0  0  0
  2 15  1  0  0  0  0
  4 16  1  0  0  0  0
  6 17  1  0  0  0  0
  7 18  1  0  0  0  0
  7 19  1  0  0  0  0
 12 20  1  0  0  0  0
 12 21  1  0  0  0  0
M  END
