 xtb: 6.5.0 (unknown)
          08122213083D

 26  0  0     0  0            999 V2000
    0.8710   -4.1669   -0.6591 C   0  0  0  0  0  0  0  0  0  0  0  0
    1.3512   -3.1535    0.0479 C   0  0  0  0  0  0  0  0  0  0  0  0
    0.8647   -1.7760   -0.0458 C   0  0  0  0  0  0  0  0  0  0  0  0
   -0.4781   -1.5382   -0.2112 C   0  0  0  0  0  0  0  0  0  0  0  0
   -1.0207   -0.2386   -0.2646 C   0  0  0  0  0  0  0  0  0  0  0  0
   -2.4638   -0.0861   -0.4255 C   0  0  0  0  0  0  0  0  0  0  0  0
   -3.2198    0.8460    0.1327 C   0  0  0  0  0  0  0  0  0  0  0  0
   -2.8448    1.7897    0.9784 F   0  0  0  0  0  0  0  0  0  0  0  0
   -4.5357    0.9217   -0.0542 F   0  0  0  0  0  0  0  0  0  0  0  0
   -0.1482    0.8222   -0.1770 C   0  0  0  0  0  0  0  0  0  0  0  0
   -0.6101    2.0835   -0.2945 F   0  0  0  0  0  0  0  0  0  0  0  0
    1.2425    0.6480   -0.0169 C   0  0  0  0  0  0  0  0  0  0  0  0
    2.1153    1.7533    0.0636 C   0  0  0  0  0  0  0  0  0  0  0  0
    3.4611    1.5641    0.2035 C   0  0  0  0  0  0  0  0  0  0  0  0
    3.9841    0.2651    0.2582 C   0  0  0  0  0  0  0  0  0  0  0  0
    3.1578   -0.8233    0.1816 C   0  0  0  0  0  0  0  0  0  0  0  0
    1.7622   -0.6722    0.0541 C   0  0  0  0  0  0  0  0  0  0  0  0
    1.2499   -5.1675   -0.5420 H   0  0  0  0  0  0  0  0  0  0  0  0
    0.0966   -4.0330   -1.3958 H   0  0  0  0  0  0  0  0  0  0  0  0
    2.1503   -3.3287    0.7555 H   0  0  0  0  0  0  0  0  0  0  0  0
   -1.1605   -2.3726   -0.2677 H   0  0  0  0  0  0  0  0  0  0  0  0
   -2.9719   -0.8194   -1.0334 H   0  0  0  0  0  0  0  0  0  0  0  0
    1.6968    2.7470    0.0118 H   0  0  0  0  0  0  0  0  0  0  0  0
    4.1272    2.4113    0.2667 H   0  0  0  0  0  0  0  0  0  0  0  0
    5.0506    0.1267    0.3576 H   0  0  0  0  0  0  0  0  0  0  0  0
    3.5819   -1.8148    0.2085 H   0  0  0  0  0  0  0  0  0  0  0  0
M  END
