23

C          1.25084        0.55281       -1.16151
C          2.22270        0.12740       -0.34550
C          3.02680       -1.06570       -0.63110
C          2.74640       -1.77140       -1.81280
C          3.48630       -2.90310       -2.16740
C          4.52320       -3.34610       -1.34610
C          5.34520       -4.54550       -1.71350
C          4.78880       -2.65180       -0.16050
F          5.76940       -3.10040        0.64210
C          4.05070       -1.51970        0.22070
C          4.34540       -0.89400        1.51670
C          3.44978       -0.27808        2.28739
F          2.14754       -0.21683        1.93546
F          3.85649        0.30009        3.43931
H          0.69750        1.45721       -0.92926
H          0.98546        0.02186       -2.07026
H          2.48189        0.67797        0.55460
H          1.94240       -1.44120       -2.46900
H          3.24450       -3.42820       -3.08910
H          5.00430       -4.99190       -2.65360
H          5.27070       -5.31060       -0.93430
H          6.39330       -4.25830       -1.83970
H          5.38568       -0.91613        1.82378
23

C          1.94891        0.52947        0.90139
C          2.22270        0.12740       -0.34550
C          3.02680       -1.06570       -0.63110
C          2.74640       -1.77140       -1.81280
C          3.48630       -2.90310       -2.16740
C          4.52320       -3.34610       -1.34610
C          5.34520       -4.54550       -1.71350
C          4.78880       -2.65180       -0.16050
F          5.76940       -3.10040        0.64210
C          4.05070       -1.51970        0.22070
C          4.34540       -0.89400        1.51670
C          4.14789        0.39176        1.80525
F          3.60471        1.23641        0.90250
F          4.50424        0.85735        3.02297
H          1.32570        1.40174        1.07113
H          2.32981        0.00774        1.77368
H          1.82363        0.65597       -1.20680
H          1.94240       -1.44120       -2.46900
H          3.24450       -3.42820       -3.08910
H          5.00430       -4.99190       -2.65360
H          5.27070       -5.31060       -0.93430
H          6.39330       -4.25830       -1.83970
H          4.79351       -1.54342        2.26129
23

C          1.08508        0.07740        0.35783
C          2.22270        0.12740       -0.34550
C          3.02680       -1.06570       -0.63110
C          2.74640       -1.77140       -1.81280
C          3.48630       -2.90310       -2.16740
C          4.52320       -3.34610       -1.34610
C          5.34520       -4.54550       -1.71350
C          4.78880       -2.65180       -0.16050
F          5.76940       -3.10040        0.64210
C          4.05070       -1.51970        0.22070
C          4.34540       -0.89400        1.51670
C          3.79770       -1.25069        2.67784
F          2.92677       -2.27979        2.75426
F          4.11746       -0.56402        3.79715
H          0.50332        0.97868        0.52309
H          0.70650       -0.84833        0.77957
H          2.58072        1.06152       -0.76944
H          1.94240       -1.44120       -2.46900
H          3.24450       -3.42820       -3.08910
H          5.00430       -4.99190       -2.65360
H          5.27070       -5.31060       -0.93430
H          6.39330       -4.25830       -1.83970
H          5.03367       -0.05587        1.48850
23

C          2.70342        1.17280        0.33817
C          2.22270        0.12740       -0.34550
C          3.02680       -1.06570       -0.63110
C          2.74640       -1.77140       -1.81280
C          3.48630       -2.90310       -2.16740
C          4.52320       -3.34610       -1.34610
C          5.34520       -4.54550       -1.71350
C          4.78880       -2.65180       -0.16050
F          5.76940       -3.10040        0.64210
C          4.05070       -1.51970        0.22070
C          4.34540       -0.89400        1.51670
C          3.44978       -0.27808        2.28739
F          2.14754       -0.21683        1.93546
F          3.85649        0.30009        3.43931
H          2.06725        2.02528        0.55410
H          3.72686        1.20676        0.69814
H          1.19205        0.10629       -0.68871
H          1.94240       -1.44120       -2.46900
H          3.24450       -3.42820       -3.08910
H          5.00430       -4.99190       -2.65360
H          5.27070       -5.31060       -0.93430
H          6.39330       -4.25830       -1.83970
H          5.38568       -0.91613        1.82378
23

C          2.70342        1.17280        0.33817
C          2.22270        0.12740       -0.34550
C          3.02680       -1.06570       -0.63110
C          2.74640       -1.77140       -1.81280
C          3.48630       -2.90310       -2.16740
C          4.52320       -3.34610       -1.34610
C          5.34520       -4.54550       -1.71350
C          4.78880       -2.65180       -0.16050
F          5.76940       -3.10040        0.64210
C          4.05070       -1.51970        0.22070
C          4.34540       -0.89400        1.51670
C          5.54956       -0.84862        2.08537
F          6.63530       -1.36138        1.46757
F          5.68240       -0.28336        3.30580
H          2.06725        2.02528        0.55410
H          3.72686        1.20676        0.69814
H          1.19205        0.10629       -0.68871
H          1.94240       -1.44120       -2.46900
H          3.24450       -3.42820       -3.08910
H          5.00430       -4.99190       -2.65360
H          5.27070       -5.31060       -0.93430
H          6.39330       -4.25830       -1.83970
H          3.49199       -0.48190        2.04475
23

C          2.57816        1.35047       -0.75672
C          2.22270        0.12740       -0.34550
C          3.02680       -1.06570       -0.63110
C          2.74640       -1.77140       -1.81280
C          3.48630       -2.90310       -2.16740
C          4.52320       -3.34610       -1.34610
C          5.34520       -4.54550       -1.71350
C          4.78880       -2.65180       -0.16050
F          5.76940       -3.10040        0.64210
C          4.05070       -1.51970        0.22070
C          4.34540       -0.89400        1.51670
C          5.20898        0.10345        1.70316
F          5.87253        0.65803        0.66606
F          5.42694        0.56251        2.95551
H          1.97077        2.21260       -0.50006
H          3.47111        1.52438       -1.34880
H          1.33089       -0.02622        0.25580
H          1.94240       -1.44120       -2.46900
H          3.24450       -3.42820       -3.08910
H          5.00430       -4.99190       -2.65360
H          5.27070       -5.31060       -0.93430
H          6.39330       -4.25830       -1.83970
H          3.83657       -1.32399        2.37295
23

C          1.08508        0.07740        0.35783
C          2.22270        0.12740       -0.34550
C          3.02680       -1.06570       -0.63110
C          2.74640       -1.77140       -1.81280
C          3.48630       -2.90310       -2.16740
C          4.52320       -3.34610       -1.34610
C          5.34520       -4.54550       -1.71350
C          4.78880       -2.65180       -0.16050
F          5.76940       -3.10040        0.64210
C          4.05070       -1.51970        0.22070
C          4.34540       -0.89400        1.51670
C          5.20898        0.10345        1.70316
F          5.87253        0.65803        0.66606
F          5.42694        0.56251        2.95551
H          0.50332        0.97868        0.52309
H          0.70650       -0.84833        0.77957
H          2.58072        1.06152       -0.76944
H          1.94240       -1.44120       -2.46900
H          3.24450       -3.42820       -3.08910
H          5.00430       -4.99190       -2.65360
H          5.27070       -5.31060       -0.93430
H          6.39330       -4.25830       -1.83970
H          3.83657       -1.32399        2.37295
23

C          2.57816        1.35047       -0.75672
C          2.22270        0.12740       -0.34550
C          3.02680       -1.06570       -0.63110
C          2.74640       -1.77140       -1.81280
C          3.48630       -2.90310       -2.16740
C          4.52320       -3.34610       -1.34610
C          5.34520       -4.54550       -1.71350
C          4.78880       -2.65180       -0.16050
F          5.76940       -3.10040        0.64210
C          4.05070       -1.51970        0.22070
C          4.34540       -0.89400        1.51670
C          3.79770       -1.25069        2.67784
F          2.92677       -2.27979        2.75426
F          4.11746       -0.56402        3.79715
H          1.97077        2.21260       -0.50006
H          3.47111        1.52438       -1.34880
H          1.33089       -0.02622        0.25580
H          1.94240       -1.44120       -2.46900
H          3.24450       -3.42820       -3.08910
H          5.00430       -4.99190       -2.65360
H          5.27070       -5.31060       -0.93430
H          6.39330       -4.25830       -1.83970
H          5.03367       -0.05587        1.48850
23

C          1.94891        0.52947        0.90139
C          2.22270        0.12740       -0.34550
C          3.02680       -1.06570       -0.63110
C          2.74640       -1.77140       -1.81280
C          3.48630       -2.90310       -2.16740
C          4.52320       -3.34610       -1.34610
C          5.34520       -4.54550       -1.71350
C          4.78880       -2.65180       -0.16050
F          5.76940       -3.10040        0.64210
C          4.05070       -1.51970        0.22070
C          4.34540       -0.89400        1.51670
C          5.20898        0.10345        1.70316
F          5.87253        0.65803        0.66606
F          5.42694        0.56251        2.95551
H          1.32570        1.40174        1.07113
H          2.32981        0.00774        1.77368
H          1.82363        0.65597       -1.20680
H          1.94240       -1.44120       -2.46900
H          3.24450       -3.42820       -3.08910
H          5.00430       -4.99190       -2.65360
H          5.27070       -5.31060       -0.93430
H          6.39330       -4.25830       -1.83970
H          3.83657       -1.32399        2.37295
23

C          1.94891        0.52947        0.90139
C          2.22270        0.12740       -0.34550
C          3.02680       -1.06570       -0.63110
C          2.74640       -1.77140       -1.81280
C          3.48630       -2.90310       -2.16740
C          4.52320       -3.34610       -1.34610
C          5.34520       -4.54550       -1.71350
C          4.78880       -2.65180       -0.16050
F          5.76940       -3.10040        0.64210
C          4.05070       -1.51970        0.22070
C          4.34540       -0.89400        1.51670
C          3.79770       -1.25069        2.67784
F          2.92677       -2.27979        2.75426
F          4.11746       -0.56402        3.79715
H          1.32570        1.40174        1.07113
H          2.32981        0.00774        1.77368
H          1.82363        0.65597       -1.20680
H          1.94240       -1.44120       -2.46900
H          3.24450       -3.42820       -3.08910
H          5.00430       -4.99190       -2.65360
H          5.27070       -5.31060       -0.93430
H          6.39330       -4.25830       -1.83970
H          5.03367       -0.05587        1.48850
