
  xtb     02012214073D
 xtb: 6.4.1 (23d549d)
 24 24  0     0  0            999 V2000
    2.9425   -0.1229    0.1192 c   0  0  0  0  0  0  0  0  0  0  0  0
    1.4430   -0.0452    0.1012 c   0  0  0  0  0  0  0  0  0  0  0  0
    0.6997   -1.2140    0.1598 c   0  0  0  0  0  0  0  0  0  0  0  0
   -0.6942   -1.2132    0.1418 c   0  0  0  0  0  0  0  0  0  0  0  0
   -1.3971   -2.5293    0.2551 c   0  0  0  0  0  0  0  0  0  0  0  0
   -2.3423   -2.7349    0.9628 o   0  0  0  0  0  0  0  0  0  0  0  0
   -0.8743   -3.5187   -0.4946 o   0  0  0  0  0  0  0  0  0  0  0  0
   -1.3914   -0.0053    0.0378 c   0  0  0  0  0  0  0  0  0  0  0  0
   -2.8826    0.0830   -0.0135 c   0  0  0  0  0  0  0  0  0  0  0  0
   -0.6439    1.1615   -0.0627 c   0  0  0  0  0  0  0  0  0  0  0  0
    0.7437    1.1619   -0.0093 c   0  0  0  0  0  0  0  0  0  0  0  0
    1.4165    2.4958   -0.1036 c   0  0  0  0  0  0  0  0  0  0  0  0
    1.1214    3.3200   -0.9207 o   0  0  0  0  0  0  0  0  0  0  0  0
    2.3668    2.7429    0.8183 o   0  0  0  0  0  0  0  0  0  0  0  0
    3.2738   -1.0393   -0.3650 h   0  0  0  0  0  0  0  0  0  0  0  0
    3.3172   -0.1470    1.1442 h   0  0  0  0  0  0  0  0  0  0  0  0
    3.3954    0.7190   -0.3986 h   0  0  0  0  0  0  0  0  0  0  0  0
    1.2303   -2.1529    0.2582 h   0  0  0  0  0  0  0  0  0  0  0  0
   -0.1432   -3.2163   -1.0500 h   0  0  0  0  0  0  0  0  0  0  0  0
   -3.3497   -0.8794    0.1638 h   0  0  0  0  0  0  0  0  0  0  0  0
   -3.1971    0.4615   -0.9860 h   0  0  0  0  0  0  0  0  0  0  0  0
   -3.2343    0.7827    0.7426 h   0  0  0  0  0  0  0  0  0  0  0  0
   -1.1507    2.1087   -0.1747 h   0  0  0  0  0  0  0  0  0  0  0  0
    2.4813    2.0096    1.4362 h   0  0  0  0  0  0  0  0  0  0  0  0
  1  2  1  0  0  0  0
  2  3  4  0  0  0  0
  3  4  4  0  0  0  0
  4  5  1  0  0  0  0
  5  6  2  0  0  0  0
  5  7  1  0  0  0  0
  4  8  4  0  0  0  0
  8  9  1  0  0  0  0
  8 10  4  0  0  0  0
  2 11  4  0  0  0  0
 10 11  4  0  0  0  0
 11 12  1  0  0  0  0
 12 13  2  0  0  0  0
 12 14  1  0  0  0  0
  1 15  1  0  0  0  0
  1 16  1  0  0  0  0
  1 17  1  0  0  0  0
  3 18  1  0  0  0  0
  7 19  1  0  0  0  0
  9 20  1  0  0  0  0
  9 21  1  0  0  0  0
  9 22  1  0  0  0  0
 10 23  1  0  0  0  0
 14 24  1  0  0  0  0
M  END
