
 OpenBabel08122213063D

 17 17  0  0  0  0  0  0  0  0999 V2000
    1.0298   -0.1924    0.7341 C   0  0  0  0  0  0  0  0  0  0  0  0
    2.2965   -0.0241    0.3259 C   0  0  0  0  0  0  0  0  0  0  0  0
    3.0946    1.1560    0.5243 C   0  0  0  0  0  0  0  0  0  0  0  0
    2.8870    2.0128    1.5898 C   0  0  0  0  0  0  0  0  0  0  0  0
    3.9708    3.3290    1.6060 S   0  0  0  0  0  0  0  0  0  0  0  0
    4.7450    2.7669    0.1906 C   0  0  0  0  0  0  0  0  0  0  0  0
    4.2004    1.5944   -0.3003 C   0  0  0  0  0  0  0  0  0  0  0  0
    4.6752    0.9308   -1.4865 C   0  0  0  0  0  0  0  0  0  0  0  0
    5.6799    1.2879   -2.2992 C   0  0  0  0  0  0  0  0  0  0  0  0
    6.4165    2.3966   -2.0850 F   0  0  0  0  0  0  0  0  0  0  0  0
    5.9589    0.5124   -3.3689 F   0  0  0  0  0  0  0  0  0  0  0  0
    0.5054   -1.1234    0.5432 H   0  0  0  0  0  0  0  0  0  0  0  0
    0.4759    0.5842    1.2518 H   0  0  0  0  0  0  0  0  0  0  0  0
    2.7565   -0.8564   -0.2020 H   0  0  0  0  0  0  0  0  0  0  0  0
    2.1527    1.9321    2.3790 H   0  0  0  0  0  0  0  0  0  0  0  0
    5.5692    3.3477   -0.1983 H   0  0  0  0  0  0  0  0  0  0  0  0
    4.1615    0.0195   -1.7789 H   0  0  0  0  0  0  0  0  0  0  0  0
  1  2  2  0  0  0  0
  1 12  1  0  0  0  0
  1 13  1  0  0  0  0
  2  3  1  0  0  0  0
  2 14  1  0  0  0  0
  3  4  2  0  0  0  0
  3  7  1  0  0  0  0
  4  5  1  0  0  0  0
  4 15  1  0  0  0  0
  5  6  1  0  0  0  0
  6  7  2  0  0  0  0
  6 16  1  0  0  0  0
  7  8  1  0  0  0  0
  8  9  2  0  0  0  0
  8 17  1  0  0  0  0
  9 10  1  0  0  0  0
  9 11  1  0  0  0  0
M  END
