41

C          1.98943       -1.10725        0.23297
O          2.58700        0.09780       -0.07290
C          3.16550        0.94760        0.81550
C          2.74260        1.05330        2.15750
C          3.35290        1.96800        3.04470
N          2.96380        2.06330        4.43210
C          4.06560        2.09710        5.36190
C          5.20560        2.87850        5.08120
S          5.25730        3.92360        3.62900
C          6.29790        2.88630        5.95700
C          6.27860        2.10430        7.11180
C          5.17180        1.30400        7.39140
C          4.07770        1.29210        6.52300
C          1.56900        2.09820        4.87390
C          1.15096        1.57921        6.12590
C         -0.18921        1.59716        6.52079
C         -1.18874        2.10082        5.68088
C         -2.59666        2.07674        6.18306
C         -3.58500        2.93795        5.88261
F         -3.42814        3.99020        5.04256
F         -4.80904        2.75116        6.44224
C         -0.80728        2.57241        4.41588
C          0.53302        2.56184        4.02118
C          4.43360        2.73920        2.56650
C          4.85720        2.62710        1.23940
C          4.22390        1.74200        0.37040
H          1.59608       -1.56258       -0.69907
H          1.14061       -0.94459        0.93173
H          2.72828       -1.80307        0.68305
H          1.95950        0.40190        2.51390
H          7.16260        3.50230        5.74490
H          7.12490        2.11280        7.78640
H          5.16400        0.68490        8.27920
H          3.25040        0.63340        6.75200
H          1.82355        1.12991        6.83082
H         -0.44655        1.19846        7.49516
H         -2.85715        1.27415        6.86856
H         -1.51952        2.94897        3.70344
H          0.71700        2.90678        3.02018
H          5.67750        3.23360        0.87650
H          4.56090        1.66970       -0.65620
41

C          1.27153       -0.31697       -0.05551
O          2.58700        0.09780       -0.07290
C          3.16550        0.94760        0.81550
C          2.74260        1.05330        2.15750
C          3.35290        1.96800        3.04470
N          2.96380        2.06330        4.43210
C          4.06560        2.09710        5.36190
C          5.20560        2.87850        5.08120
S          5.25730        3.92360        3.62900
C          6.29790        2.88630        5.95700
C          6.27860        2.10430        7.11180
C          5.17180        1.30400        7.39140
C          4.07770        1.29210        6.52300
C          1.56900        2.09820        4.87390
C          1.15096        1.57921        6.12590
C         -0.18921        1.59716        6.52079
C         -1.18874        2.10082        5.68088
C         -2.59666        2.07674        6.18306
C         -3.58500        2.93795        5.88261
F         -3.42814        3.99020        5.04256
F         -4.80904        2.75116        6.44224
C         -0.80728        2.57241        4.41588
C          0.53302        2.56184        4.02118
C          4.43360        2.73920        2.56650
C          4.85720        2.62710        1.23940
C          4.22390        1.74200        0.37040
H          1.09469       -0.99449       -0.91598
H          0.59487        0.55945       -0.15160
H          1.05178       -0.86972        0.88194
H          1.95950        0.40190        2.51390
H          7.16260        3.50230        5.74490
H          7.12490        2.11280        7.78640
H          5.16400        0.68490        8.27920
H          3.25040        0.63340        6.75200
H          1.82355        1.12991        6.83082
H         -0.44655        1.19846        7.49516
H         -2.85715        1.27415        6.86856
H         -1.51952        2.94897        3.70344
H          0.71700        2.90678        3.02018
H          5.67750        3.23360        0.87650
H          4.56090        1.66970       -0.65620
41

C          1.98943       -1.10725        0.23297
O          2.58700        0.09780       -0.07290
C          3.16550        0.94760        0.81550
C          2.74260        1.05330        2.15750
C          3.35290        1.96800        3.04470
N          2.96380        2.06330        4.43210
C          4.06560        2.09710        5.36190
C          5.20560        2.87850        5.08120
S          5.25730        3.92360        3.62900
C          6.29790        2.88630        5.95700
C          6.27860        2.10430        7.11180
C          5.17180        1.30400        7.39140
C          4.07770        1.29210        6.52300
C          1.56900        2.09820        4.87390
C          0.52431        1.46096        4.15685
C         -0.80601        1.52639        4.57907
C         -1.17375        2.25453        5.71607
C         -2.62058        2.27356        6.09201
C         -3.26334        1.41789        6.90653
F         -2.65440        0.37710        7.52578
F         -4.59147        1.59858        7.12961
C         -0.16550        2.93683        6.41324
C          1.16653        2.86753        5.99706
C          4.43360        2.73920        2.56650
C          4.85720        2.62710        1.23940
C          4.22390        1.74200        0.37040
H          1.59608       -1.56258       -0.69907
H          1.14061       -0.94459        0.93173
H          2.72828       -1.80307        0.68305
H          1.95950        0.40190        2.51390
H          7.16260        3.50230        5.74490
H          7.12490        2.11280        7.78640
H          5.16400        0.68490        8.27920
H          3.25040        0.63340        6.75200
H          0.68348        0.91226        3.24869
H         -1.55922        1.00775        3.99744
H         -3.22668        3.06698        5.66185
H         -0.37199        3.53969        7.27959
H          1.85628        3.45637        6.57356
H          5.67750        3.23360        0.87650
H          4.56090        1.66970       -0.65620
41

C          2.48433        0.29832       -1.43380
O          2.58700        0.09780       -0.07290
C          3.16550        0.94760        0.81550
C          2.74260        1.05330        2.15750
C          3.35290        1.96800        3.04470
N          2.96380        2.06330        4.43210
C          4.06560        2.09710        5.36190
C          5.20560        2.87850        5.08120
S          5.25730        3.92360        3.62900
C          6.29790        2.88630        5.95700
C          6.27860        2.10430        7.11180
C          5.17180        1.30400        7.39140
C          4.07770        1.29210        6.52300
C          1.56900        2.09820        4.87390
C          1.15096        1.57921        6.12590
C         -0.18921        1.59716        6.52079
C         -1.18874        2.10082        5.68088
C         -2.59666        2.07674        6.18306
C         -3.58500        2.93795        5.88261
F         -3.42814        3.99020        5.04256
F         -4.80904        2.75116        6.44224
C         -0.80728        2.57241        4.41588
C          0.53302        2.56184        4.02118
C          4.43360        2.73920        2.56650
C          4.85720        2.62710        1.23940
C          4.22390        1.74200        0.37040
H          1.97712       -0.57610       -1.89080
H          3.49694        0.39287       -1.88200
H          1.88434        1.20774       -1.64739
H          1.95950        0.40190        2.51390
H          7.16260        3.50230        5.74490
H          7.12490        2.11280        7.78640
H          5.16400        0.68490        8.27920
H          3.25040        0.63340        6.75200
H          1.82355        1.12991        6.83082
H         -0.44655        1.19846        7.49516
H         -2.85715        1.27415        6.86856
H         -1.51952        2.94897        3.70344
H          0.71700        2.90678        3.02018
H          5.67750        3.23360        0.87650
H          4.56090        1.66970       -0.65620
41

C          2.48433        0.29832       -1.43380
O          2.58700        0.09780       -0.07290
C          3.16550        0.94760        0.81550
C          2.74260        1.05330        2.15750
C          3.35290        1.96800        3.04470
N          2.96380        2.06330        4.43210
C          4.06560        2.09710        5.36190
C          5.20560        2.87850        5.08120
S          5.25730        3.92360        3.62900
C          6.29790        2.88630        5.95700
C          6.27860        2.10430        7.11180
C          5.17180        1.30400        7.39140
C          4.07770        1.29210        6.52300
C          1.56900        2.09820        4.87390
C          1.15096        1.57921        6.12590
C         -0.18921        1.59716        6.52079
C         -1.18874        2.10082        5.68088
C         -2.59666        2.07674        6.18306
C         -3.23283        3.03879        6.87481
F         -2.65452        4.21453        7.22225
F         -4.52335        2.83319        7.24716
C         -0.80728        2.57241        4.41588
C          0.53302        2.56184        4.02118
C          4.43360        2.73920        2.56650
C          4.85720        2.62710        1.23940
C          4.22390        1.74200        0.37040
H          1.97712       -0.57610       -1.89080
H          3.49694        0.39287       -1.88200
H          1.88434        1.20774       -1.64739
H          1.95950        0.40190        2.51390
H          7.16260        3.50230        5.74490
H          7.12490        2.11280        7.78640
H          5.16400        0.68490        8.27920
H          3.25040        0.63340        6.75200
H          1.82355        1.12991        6.83082
H         -0.44655        1.19846        7.49516
H         -3.17712        1.18323        5.96713
H         -1.51952        2.94897        3.70344
H          0.71700        2.90678        3.02018
H          5.67750        3.23360        0.87650
H          4.56090        1.66970       -0.65620
41

C          2.48433        0.29832       -1.43380
O          2.58700        0.09780       -0.07290
C          3.16550        0.94760        0.81550
C          2.74260        1.05330        2.15750
C          3.35290        1.96800        3.04470
N          2.96380        2.06330        4.43210
C          4.06560        2.09710        5.36190
C          5.20560        2.87850        5.08120
S          5.25730        3.92360        3.62900
C          6.29790        2.88630        5.95700
C          6.27860        2.10430        7.11180
C          5.17180        1.30400        7.39140
C          4.07770        1.29210        6.52300
C          1.56900        2.09820        4.87390
C          0.52431        1.46096        4.15685
C         -0.80601        1.52639        4.57907
C         -1.17375        2.25453        5.71607
C         -2.62058        2.27356        6.09201
C         -3.14132        2.38051        7.32739
F         -2.38694        2.49320        8.44798
F         -4.49253        2.37962        7.47084
C         -0.16550        2.93683        6.41324
C          1.16653        2.86753        5.99706
C          4.43360        2.73920        2.56650
C          4.85720        2.62710        1.23940
C          4.22390        1.74200        0.37040
H          1.97712       -0.57610       -1.89080
H          3.49694        0.39287       -1.88200
H          1.88434        1.20774       -1.64739
H          1.95950        0.40190        2.51390
H          7.16260        3.50230        5.74490
H          7.12490        2.11280        7.78640
H          5.16400        0.68490        8.27920
H          3.25040        0.63340        6.75200
H          0.68348        0.91226        3.24869
H         -1.55922        1.00775        3.99744
H         -3.33769        2.19277        5.27890
H         -0.37199        3.53969        7.27959
H          1.85628        3.45637        6.57356
H          5.67750        3.23360        0.87650
H          4.56090        1.66970       -0.65620
41

C          2.48433        0.29832       -1.43380
O          2.58700        0.09780       -0.07290
C          3.16550        0.94760        0.81550
C          2.74260        1.05330        2.15750
C          3.35290        1.96800        3.04470
N          2.96380        2.06330        4.43210
C          4.06560        2.09710        5.36190
C          5.20560        2.87850        5.08120
S          5.25730        3.92360        3.62900
C          6.29790        2.88630        5.95700
C          6.27860        2.10430        7.11180
C          5.17180        1.30400        7.39140
C          4.07770        1.29210        6.52300
C          1.56900        2.09820        4.87390
C          0.47906        2.04080        3.96818
C         -0.84660        2.10163        4.40548
C         -1.15960        2.25556        5.76066
C         -2.60487        2.31559        6.13829
C         -3.16481        1.90662        7.29067
F         -2.45841        1.36245        8.31165
F         -4.50702        2.04414        7.45159
C         -0.09808        2.36703        6.67110
C          1.22840        2.29973        6.23724
C          4.43360        2.73920        2.56650
C          4.85720        2.62710        1.23940
C          4.22390        1.74200        0.37040
H          1.97712       -0.57610       -1.89080
H          3.49694        0.39287       -1.88200
H          1.88434        1.20774       -1.64739
H          1.95950        0.40190        2.51390
H          7.16260        3.50230        5.74490
H          7.12490        2.11280        7.78640
H          5.16400        0.68490        8.27920
H          3.25040        0.63340        6.75200
H          0.60093        1.96693        2.90476
H         -1.63790        2.03921        3.66754
H         -3.28498        2.73714        5.40231
H         -0.25672        2.51485        7.72449
H          1.96753        2.43525        7.00546
H          5.67750        3.23360        0.87650
H          4.56090        1.66970       -0.65620
41

C          2.48433        0.29832       -1.43380
O          2.58700        0.09780       -0.07290
C          3.16550        0.94760        0.81550
C          2.74260        1.05330        2.15750
C          3.35290        1.96800        3.04470
N          2.96380        2.06330        4.43210
C          4.06560        2.09710        5.36190
C          5.20560        2.87850        5.08120
S          5.25730        3.92360        3.62900
C          6.29790        2.88630        5.95700
C          6.27860        2.10430        7.11180
C          5.17180        1.30400        7.39140
C          4.07770        1.29210        6.52300
C          1.56900        2.09820        4.87390
C          0.47906        2.04080        3.96818
C         -0.84660        2.10163        4.40548
C         -1.15960        2.25556        5.76066
C         -2.60487        2.31559        6.13829
C         -3.40543        1.28653        6.46832
F         -2.98674       -0.00217        6.50651
F         -4.70220        1.54091        6.78457
C         -0.09808        2.36703        6.67110
C          1.22840        2.29973        6.23724
C          4.43360        2.73920        2.56650
C          4.85720        2.62710        1.23940
C          4.22390        1.74200        0.37040
H          1.97712       -0.57610       -1.89080
H          3.49694        0.39287       -1.88200
H          1.88434        1.20774       -1.64739
H          1.95950        0.40190        2.51390
H          7.16260        3.50230        5.74490
H          7.12490        2.11280        7.78640
H          5.16400        0.68490        8.27920
H          3.25040        0.63340        6.75200
H          0.60093        1.96693        2.90476
H         -1.63790        2.03921        3.66754
H         -3.06630        3.29989        6.14978
H         -0.25672        2.51485        7.72449
H          1.96753        2.43525        7.00546
H          5.67750        3.23360        0.87650
H          4.56090        1.66970       -0.65620
41

C          2.48433        0.29832       -1.43380
O          2.58700        0.09780       -0.07290
C          3.16550        0.94760        0.81550
C          2.74260        1.05330        2.15750
C          3.35290        1.96800        3.04470
N          2.96380        2.06330        4.43210
C          4.06560        2.09710        5.36190
C          5.20560        2.87850        5.08120
S          5.25730        3.92360        3.62900
C          6.29790        2.88630        5.95700
C          6.27860        2.10430        7.11180
C          5.17180        1.30400        7.39140
C          4.07770        1.29210        6.52300
C          1.56900        2.09820        4.87390
C          0.52431        1.46096        4.15685
C         -0.80601        1.52639        4.57907
C         -1.17375        2.25453        5.71607
C         -2.62058        2.27356        6.09201
C         -3.26334        1.41789        6.90653
F         -2.65440        0.37710        7.52578
F         -4.59147        1.59858        7.12961
C         -0.16550        2.93683        6.41324
C          1.16653        2.86753        5.99706
C          4.43360        2.73920        2.56650
C          4.85720        2.62710        1.23940
C          4.22390        1.74200        0.37040
H          1.97712       -0.57610       -1.89080
H          3.49694        0.39287       -1.88200
H          1.88434        1.20774       -1.64739
H          1.95950        0.40190        2.51390
H          7.16260        3.50230        5.74490
H          7.12490        2.11280        7.78640
H          5.16400        0.68490        8.27920
H          3.25040        0.63340        6.75200
H          0.68348        0.91226        3.24869
H         -1.55922        1.00775        3.99744
H         -3.22668        3.06698        5.66185
H         -0.37199        3.53969        7.27959
H          1.85628        3.45637        6.57356
H          5.67750        3.23360        0.87650
H          4.56090        1.66970       -0.65620
41

C          1.98943       -1.10725        0.23297
O          2.58700        0.09780       -0.07290
C          3.16550        0.94760        0.81550
C          2.74260        1.05330        2.15750
C          3.35290        1.96800        3.04470
N          2.96380        2.06330        4.43210
C          4.06560        2.09710        5.36190
C          5.20560        2.87850        5.08120
S          5.25730        3.92360        3.62900
C          6.29790        2.88630        5.95700
C          6.27860        2.10430        7.11180
C          5.17180        1.30400        7.39140
C          4.07770        1.29210        6.52300
C          1.56900        2.09820        4.87390
C          1.15096        1.57921        6.12590
C         -0.18921        1.59716        6.52079
C         -1.18874        2.10082        5.68088
C         -2.59666        2.07674        6.18306
C         -3.23283        3.03879        6.87481
F         -2.65452        4.21453        7.22225
F         -4.52335        2.83319        7.24716
C         -0.80728        2.57241        4.41588
C          0.53302        2.56184        4.02118
C          4.43360        2.73920        2.56650
C          4.85720        2.62710        1.23940
C          4.22390        1.74200        0.37040
H          1.59608       -1.56258       -0.69907
H          1.14061       -0.94459        0.93173
H          2.72828       -1.80307        0.68305
H          1.95950        0.40190        2.51390
H          7.16260        3.50230        5.74490
H          7.12490        2.11280        7.78640
H          5.16400        0.68490        8.27920
H          3.25040        0.63340        6.75200
H          1.82355        1.12991        6.83082
H         -0.44655        1.19846        7.49516
H         -3.17712        1.18323        5.96713
H         -1.51952        2.94897        3.70344
H          0.71700        2.90678        3.02018
H          5.67750        3.23360        0.87650
H          4.56090        1.66970       -0.65620
