
  xtb     02032210453D
 xtb: 6.4.1 (23d549d)
 41 44  0     0  0            999 V2000
    1.8025   -0.8484    0.3097 c   0  0  0  0  0  0  0  0  0  0  0  0
    2.7345    0.1372   -0.0673 o   0  0  0  0  0  0  0  0  0  0  0  0
    3.2011    0.9909    0.8800 c   0  0  0  0  0  0  0  0  0  0  0  0
    2.8241    0.9684    2.2168 c   0  0  0  0  0  0  0  0  0  0  0  0
    3.3422    1.9062    3.1058 c   0  0  0  0  0  0  0  0  0  0  0  0
    2.9616    1.8988    4.4636 n   0  0  0  0  0  0  0  0  0  0  0  0
    4.0498    1.8815    5.3611 c   0  0  0  0  0  0  0  0  0  0  0  0
    5.0942    2.7897    5.1939 c   0  0  0  0  0  0  0  0  0  0  0  0
    5.0430    3.9250    3.8329 s   0  0  0  0  0  0  0  0  0  0  0  0
    6.1704    2.7972    6.0672 c   0  0  0  0  0  0  0  0  0  0  0  0
    6.2193    1.8851    7.1051 c   0  0  0  0  0  0  0  0  0  0  0  0
    5.2120    0.9440    7.2477 c   0  0  0  0  0  0  0  0  0  0  0  0
    4.1398    0.9324    6.3741 c   0  0  0  0  0  0  0  0  0  0  0  0
    1.6485    2.0240    4.8767 c   0  0  0  0  0  0  0  0  0  0  0  0
    1.3194    2.1103    6.2349 c   0  0  0  0  0  0  0  0  0  0  0  0
    0.0093    2.2357    6.6359 c   0  0  0  0  0  0  0  0  0  0  0  0
   -1.0385    2.2939    5.7135 c   0  0  0  0  0  0  0  0  0  0  0  0
   -2.3964    2.4013    6.2094 c   0  0  0  0  0  0  0  0  0  0  0  0
   -3.5268    2.4497    5.5188 c   0  0  0  0  0  0  0  0  0  0  0  0
   -3.6846    2.4129    4.1972 f   0  0  0  0  0  0  0  0  0  0  0  0
   -4.7293    2.5460    6.0913 f   0  0  0  0  0  0  0  0  0  0  0  0
   -0.7030    2.2683    4.3579 c   0  0  0  0  0  0  0  0  0  0  0  0
    0.6056    2.1447    3.9498 c   0  0  0  0  0  0  0  0  0  0  0  0
    4.3000    2.8131    2.6672 c   0  0  0  0  0  0  0  0  0  0  0  0
    4.6863    2.8302    1.3343 c   0  0  0  0  0  0  0  0  0  0  0  0
    4.1284    1.9418    0.4431 c   0  0  0  0  0  0  0  0  0  0  0  0
    1.5761   -1.4013   -0.6003 h   0  0  0  0  0  0  0  0  0  0  0  0
    0.8816   -0.4038    0.7007 h   0  0  0  0  0  0  0  0  0  0  0  0
    2.2213   -1.5334    1.0538 h   0  0  0  0  0  0  0  0  0  0  0  0
    2.1262    0.2379    2.5938 h   0  0  0  0  0  0  0  0  0  0  0  0
    6.9571    3.5218    5.9257 h   0  0  0  0  0  0  0  0  0  0  0  0
    7.0523    1.8973    7.7908 h   0  0  0  0  0  0  0  0  0  0  0  0
    5.2627    0.2116    8.0389 h   0  0  0  0  0  0  0  0  0  0  0  0
    3.3607    0.1913    6.4721 h   0  0  0  0  0  0  0  0  0  0  0  0
    2.0971    2.1038    6.9818 h   0  0  0  0  0  0  0  0  0  0  0  0
   -0.2109    2.2957    7.6919 h   0  0  0  0  0  0  0  0  0  0  0  0
   -2.5154    2.4443    7.2829 h   0  0  0  0  0  0  0  0  0  0  0  0
   -1.4699    2.3549    3.6061 h   0  0  0  0  0  0  0  0  0  0  0  0
    0.8243    2.1697    2.8941 h   0  0  0  0  0  0  0  0  0  0  0  0
    5.4185    3.5510    1.0064 h   0  0  0  0  0  0  0  0  0  0  0  0
    4.4064    1.9487   -0.5979 h   0  0  0  0  0  0  0  0  0  0  0  0
  1  2  1  0  0  0  0
  2  3  1  0  0  0  0
  3  4  4  0  0  0  0
  4  5  4  0  0  0  0
  5  6  1  0  0  0  0
  6  7  1  0  0  0  0
  7  8  4  0  0  0  0
  8  9  1  0  0  0  0
  8 10  4  0  0  0  0
 10 11  4  0  0  0  0
 11 12  4  0  0  0  0
  7 13  4  0  0  0  0
 12 13  4  0  0  0  0
  6 14  1  0  0  0  0
 14 15  4  0  0  0  0
 15 16  4  0  0  0  0
 16 17  4  0  0  0  0
 17 18  1  0  0  0  0
 18 19  2  0  0  0  0
 19 20  1  0  0  0  0
 19 21  1  0  0  0  0
 17 22  4  0  0  0  0
 14 23  4  0  0  0  0
 22 23  4  0  0  0  0
  5 24  4  0  0  0  0
  9 24  1  0  0  0  0
 24 25  4  0  0  0  0
  3 26  4  0  0  0  0
 25 26  4  0  0  0  0
  1 27  1  0  0  0  0
  1 28  1  0  0  0  0
  1 29  1  0  0  0  0
  4 30  1  0  0  0  0
 10 31  1  0  0  0  0
 11 32  1  0  0  0  0
 12 33  1  0  0  0  0
 13 34  1  0  0  0  0
 15 35  1  0  0  0  0
 16 36  1  0  0  0  0
 18 37  1  0  0  0  0
 22 38  1  0  0  0  0
 23 39  1  0  0  0  0
 25 40  1  0  0  0  0
 26 41  1  0  0  0  0
M  END
