 xtb: 6.5.0 (unknown)
          08122213083D

 23  0  0     0  0            999 V2000
   -2.4573    3.6723    0.2492 C   0  0  0  0  0  0  0  0  0  0  0  0
   -2.2752    2.4480   -0.2263 C   0  0  0  0  0  0  0  0  0  0  0  0
   -1.0188    1.7030   -0.1232 C   0  0  0  0  0  0  0  0  0  0  0  0
    0.1947    2.3741   -0.2545 C   0  0  0  0  0  0  0  0  0  0  0  0
    1.3992    1.7013   -0.2079 C   0  0  0  0  0  0  0  0  0  0  0  0
    1.3964    0.3235   -0.0342 C   0  0  0  0  0  0  0  0  0  0  0  0
    2.6926   -0.4303    0.0541 C   0  0  0  0  0  0  0  0  0  0  0  0
    3.7144    0.2158   -0.5266 F   0  0  0  0  0  0  0  0  0  0  0  0
    3.0632   -0.6411    1.3345 F   0  0  0  0  0  0  0  0  0  0  0  0
    2.6311   -1.6416   -0.5182 F   0  0  0  0  0  0  0  0  0  0  0  0
    0.2042   -0.3687    0.1070 C   0  0  0  0  0  0  0  0  0  0  0  0
   -1.0123    0.3073    0.0652 C   0  0  0  0  0  0  0  0  0  0  0  0
   -2.2721   -0.3991    0.2739 C   0  0  0  0  0  0  0  0  0  0  0  0
   -2.5146   -1.6760    0.0183 C   0  0  0  0  0  0  0  0  0  0  0  0
   -1.6878   -2.5654   -0.5097 F   0  0  0  0  0  0  0  0  0  0  0  0
   -3.6887   -2.2535    0.2482 F   0  0  0  0  0  0  0  0  0  0  0  0
   -3.3966    4.1860    0.1390 H   0  0  0  0  0  0  0  0  0  0  0  0
   -1.6854    4.1981    0.7859 H   0  0  0  0  0  0  0  0  0  0  0  0
   -3.0853    1.9431   -0.7352 H   0  0  0  0  0  0  0  0  0  0  0  0
    0.1883    3.4406   -0.4171 H   0  0  0  0  0  0  0  0  0  0  0  0
    2.3316    2.2330   -0.3151 H   0  0  0  0  0  0  0  0  0  0  0  0
    0.2311   -1.4354    0.2620 H   0  0  0  0  0  0  0  0  0  0  0  0
   -3.0981    0.1631    0.6817 H   0  0  0  0  0  0  0  0  0  0  0  0
M  END
