
  xtb     02032211353D
 xtb: 6.4.1 (23d549d)
 24 24  0     0  0            999 V2000
   -4.2806   -1.3529   -0.3741 C   0  0  0  0  0  0  0  0  0  0  0  0
   -3.6196   -0.3830    0.2430 C   0  0  0  0  0  0  0  0  0  0  0  0
   -2.1809   -0.1491    0.1279 C   0  0  0  0  0  0  0  0  0  0  0  0
   -1.3123   -1.2317    0.0233 C   0  0  0  0  0  0  0  0  0  0  0  0
    0.0618   -1.0758   -0.0139 C   0  0  0  0  0  0  0  0  0  0  0  0
    0.5819    0.2034    0.0769 C   0  0  0  0  0  0  0  0  0  0  0  0
    1.9595    0.5063    0.0710 O   0  0  0  0  0  0  0  0  0  0  0  0
    2.8516   -0.4520   -0.0303 C   0  0  0  0  0  0  0  0  0  0  0  0
    2.8210   -1.3518    0.9711 F   0  0  0  0  0  0  0  0  0  0  0  0
    2.7672   -1.1768   -1.1620 F   0  0  0  0  0  0  0  0  0  0  0  0
    4.0673    0.0872   -0.0166 F   0  0  0  0  0  0  0  0  0  0  0  0
   -0.2534    1.3000    0.1891 C   0  0  0  0  0  0  0  0  0  0  0  0
   -1.6364    1.1471    0.1954 C   0  0  0  0  0  0  0  0  0  0  0  0
   -2.4516    2.3598    0.2471 C   0  0  0  0  0  0  0  0  0  0  0  0
   -3.6025    2.5428   -0.3860 C   0  0  0  0  0  0  0  0  0  0  0  0
   -5.3383   -1.4933   -0.2321 H   0  0  0  0  0  0  0  0  0  0  0  0
   -3.7984   -2.0275   -1.0618 H   0  0  0  0  0  0  0  0  0  0  0  0
   -4.1489    0.3016    0.8936 H   0  0  0  0  0  0  0  0  0  0  0  0
   -1.7217   -2.2295   -0.0082 H   0  0  0  0  0  0  0  0  0  0  0  0
    0.6919   -1.9463   -0.0975 H   0  0  0  0  0  0  0  0  0  0  0  0
    0.1891    2.2816    0.2515 H   0  0  0  0  0  0  0  0  0  0  0  0
   -2.0186    3.1737    0.8154 H   0  0  0  0  0  0  0  0  0  0  0  0
   -4.0397    1.7824   -1.0105 H   0  0  0  0  0  0  0  0  0  0  0  0
   -4.1352    3.4764   -0.3222 H   0  0  0  0  0  0  0  0  0  0  0  0
  1  2  2  0  0  0  0
  2  3  1  0  0  0  0
  3  4  4  0  0  0  0
  4  5  4  0  0  0  0
  5  6  4  0  0  0  0
  6  7  1  0  0  0  0
  7  8  1  0  0  0  0
  8  9  1  0  0  0  0
  8 10  1  0  0  0  0
  8 11  1  0  0  0  0
  6 12  4  0  0  0  0
  3 13  4  0  0  0  0
 12 13  4  0  0  0  0
 13 14  1  0  0  0  0
 14 15  2  0  0  0  0
  1 16  1  0  0  0  0
  1 17  1  0  0  0  0
  2 18  1  0  0  0  0
  4 19  1  0  0  0  0
  5 20  1  0  0  0  0
 12 21  1  0  0  0  0
 14 22  1  0  0  0  0
 15 23  1  0  0  0  0
 15 24  1  0  0  0  0
M  END
