26

C          2.35470        0.45172        1.42850
C          2.23720        0.38980        0.09550
C          3.15160        1.02050       -0.91160
C          2.78280        2.31430       -1.28780
C          3.55400        3.07270       -2.15250
C          4.74630        2.57720       -2.70810
C          5.55630        3.45360       -3.63200
C          5.42043        3.51614       -4.96644
C          5.13670        1.23810       -2.38130
C          6.30790        0.65010       -2.92550
C          6.66300       -0.66190       -2.63190
C          5.86460       -1.43110       -1.80390
C          4.71330       -0.89060       -1.24210
C          4.32930        0.44970       -1.48700
H          1.59767       -0.01383        2.05143
H          3.13915        0.99473        1.93494
H          1.33801       -0.09603       -0.27640
H          1.88680        2.76910       -0.87910
H          3.18970        4.06390       -2.36490
H          6.31755        4.10988       -3.24269
H          4.70410        2.93789       -5.53105
H          6.05684        4.18835       -5.53416
H          6.97400        1.16630       -3.59170
H          7.55770       -1.09070       -3.06550
H          6.13490       -2.45930       -1.59940
H          4.13330       -1.56580       -0.64590
26

C          1.15428       -0.35412       -0.16608
C          2.23720        0.38980        0.09550
C          3.15160        1.02050       -0.91160
C          2.78280        2.31430       -1.28780
C          3.55400        3.07270       -2.15250
C          4.74630        2.57720       -2.70810
C          5.55630        3.45360       -3.63200
C          6.53877        4.28741       -3.25436
C          5.13670        1.23810       -2.38130
C          6.30790        0.65010       -2.92550
C          6.66300       -0.66190       -2.63190
C          5.86460       -1.43110       -1.80390
C          4.71330       -0.89060       -1.24210
C          4.32930        0.44970       -1.48700
H          0.59840       -0.79212        0.65674
H          0.82419       -0.59894       -1.16498
H          2.51697        0.46274        1.14397
H          1.88680        2.76910       -0.87910
H          3.18970        4.06390       -2.36490
H          5.37915        3.44598       -4.69517
H          6.86136        4.42144       -2.23247
H          7.06003        4.86991       -4.00813
H          6.97400        1.16630       -3.59170
H          7.55770       -1.09070       -3.06550
H          6.13490       -2.45930       -1.59940
H          4.13330       -1.56580       -0.64590
26

C          1.15428       -0.35412       -0.16608
C          2.23720        0.38980        0.09550
C          3.15160        1.02050       -0.91160
C          2.78280        2.31430       -1.28780
C          3.55400        3.07270       -2.15250
C          4.74630        2.57720       -2.70810
C          5.55630        3.45360       -3.63200
C          5.42043        3.51614       -4.96644
C          5.13670        1.23810       -2.38130
C          6.30790        0.65010       -2.92550
C          6.66300       -0.66190       -2.63190
C          5.86460       -1.43110       -1.80390
C          4.71330       -0.89060       -1.24210
C          4.32930        0.44970       -1.48700
H          0.59840       -0.79212        0.65674
H          0.82419       -0.59894       -1.16498
H          2.51697        0.46274        1.14397
H          1.88680        2.76910       -0.87910
H          3.18970        4.06390       -2.36490
H          6.31755        4.10988       -3.24269
H          4.70410        2.93789       -5.53105
H          6.05684        4.18835       -5.53416
H          6.97400        1.16630       -3.59170
H          7.55770       -1.09070       -3.06550
H          6.13490       -2.45930       -1.59940
H          4.13330       -1.56580       -0.64590
26

C          2.35470        0.45172        1.42850
C          2.23720        0.38980        0.09550
C          3.15160        1.02050       -0.91160
C          2.78280        2.31430       -1.28780
C          3.55400        3.07270       -2.15250
C          4.74630        2.57720       -2.70810
C          5.55630        3.45360       -3.63200
C          6.53877        4.28741       -3.25436
C          5.13670        1.23810       -2.38130
C          6.30790        0.65010       -2.92550
C          6.66300       -0.66190       -2.63190
C          5.86460       -1.43110       -1.80390
C          4.71330       -0.89060       -1.24210
C          4.32930        0.44970       -1.48700
H          1.59767       -0.01383        2.05143
H          3.13915        0.99473        1.93494
H          1.33801       -0.09603       -0.27640
H          1.88680        2.76910       -0.87910
H          3.18970        4.06390       -2.36490
H          5.37915        3.44598       -4.69517
H          6.86136        4.42144       -2.23247
H          7.06003        4.86991       -4.00813
H          6.97400        1.16630       -3.59170
H          7.55770       -1.09070       -3.06550
H          6.13490       -2.45930       -1.59940
H          4.13330       -1.56580       -0.64590
26

C          2.35470        0.45172        1.42850
C          2.23720        0.38980        0.09550
C          3.15160        1.02050       -0.91160
C          2.78280        2.31430       -1.28780
C          3.55400        3.07270       -2.15250
C          4.74630        2.57720       -2.70810
C          5.55630        3.45360       -3.63200
C          6.89034        3.40973       -3.77869
C          5.13670        1.23810       -2.38130
C          6.30790        0.65010       -2.92550
C          6.66300       -0.66190       -2.63190
C          5.86460       -1.43110       -1.80390
C          4.71330       -0.89060       -1.24210
C          4.32930        0.44970       -1.48700
H          1.59767       -0.01383        2.05143
H          3.13915        0.99473        1.93494
H          1.33801       -0.09603       -0.27640
H          1.88680        2.76910       -0.87910
H          3.18970        4.06390       -2.36490
H          5.07582        4.19023       -4.25513
H          7.53743        2.73037       -3.24387
H          7.37027        4.08739       -4.47842
H          6.97400        1.16630       -3.59170
H          7.55770       -1.09070       -3.06550
H          6.13490       -2.45930       -1.59940
H          4.13330       -1.56580       -0.64590
26

C          1.15428       -0.35412       -0.16608
C          2.23720        0.38980        0.09550
C          3.15160        1.02050       -0.91160
C          2.78280        2.31430       -1.28780
C          3.55400        3.07270       -2.15250
C          4.74630        2.57720       -2.70810
C          5.55630        3.45360       -3.63200
C          6.89034        3.40973       -3.77869
C          5.13670        1.23810       -2.38130
C          6.30790        0.65010       -2.92550
C          6.66300       -0.66190       -2.63190
C          5.86460       -1.43110       -1.80390
C          4.71330       -0.89060       -1.24210
C          4.32930        0.44970       -1.48700
H          0.59840       -0.79212        0.65674
H          0.82419       -0.59894       -1.16498
H          2.51697        0.46274        1.14397
H          1.88680        2.76910       -0.87910
H          3.18970        4.06390       -2.36490
H          5.07582        4.19023       -4.25513
H          7.53743        2.73037       -3.24387
H          7.37027        4.08739       -4.47842
H          6.97400        1.16630       -3.59170
H          7.55770       -1.09070       -3.06550
H          6.13490       -2.45930       -1.59940
H          4.13330       -1.56580       -0.64590
26

C          1.97040       -0.91681        0.22253
C          2.23720        0.38980        0.09550
C          3.15160        1.02050       -0.91160
C          2.78280        2.31430       -1.28780
C          3.55400        3.07270       -2.15250
C          4.74630        2.57720       -2.70810
C          5.55630        3.45360       -3.63200
C          6.53877        4.28741       -3.25436
C          5.13670        1.23810       -2.38130
C          6.30790        0.65010       -2.92550
C          6.66300       -0.66190       -2.63190
C          5.86460       -1.43110       -1.80390
C          4.71330       -0.89060       -1.24210
C          4.32930        0.44970       -1.48700
H          1.32082       -1.25152        1.02496
H          2.41392       -1.68075       -0.39906
H          1.80864        1.03485        0.85913
H          1.88680        2.76910       -0.87910
H          3.18970        4.06390       -2.36490
H          5.37915        3.44598       -4.69517
H          6.86136        4.42144       -2.23247
H          7.06003        4.86991       -4.00813
H          6.97400        1.16630       -3.59170
H          7.55770       -1.09070       -3.06550
H          6.13490       -2.45930       -1.59940
H          4.13330       -1.56580       -0.64590
26

C          1.97040       -0.91681        0.22253
C          2.23720        0.38980        0.09550
C          3.15160        1.02050       -0.91160
C          2.78280        2.31430       -1.28780
C          3.55400        3.07270       -2.15250
C          4.74630        2.57720       -2.70810
C          5.55630        3.45360       -3.63200
C          5.42043        3.51614       -4.96644
C          5.13670        1.23810       -2.38130
C          6.30790        0.65010       -2.92550
C          6.66300       -0.66190       -2.63190
C          5.86460       -1.43110       -1.80390
C          4.71330       -0.89060       -1.24210
C          4.32930        0.44970       -1.48700
H          1.32082       -1.25152        1.02496
H          2.41392       -1.68075       -0.39906
H          1.80864        1.03485        0.85913
H          1.88680        2.76910       -0.87910
H          3.18970        4.06390       -2.36490
H          6.31755        4.10988       -3.24269
H          4.70410        2.93789       -5.53105
H          6.05684        4.18835       -5.53416
H          6.97400        1.16630       -3.59170
H          7.55770       -1.09070       -3.06550
H          6.13490       -2.45930       -1.59940
H          4.13330       -1.56580       -0.64590
26

C          1.97040       -0.91681        0.22253
C          2.23720        0.38980        0.09550
C          3.15160        1.02050       -0.91160
C          2.78280        2.31430       -1.28780
C          3.55400        3.07270       -2.15250
C          4.74630        2.57720       -2.70810
C          5.55630        3.45360       -3.63200
C          6.89034        3.40973       -3.77869
C          5.13670        1.23810       -2.38130
C          6.30790        0.65010       -2.92550
C          6.66300       -0.66190       -2.63190
C          5.86460       -1.43110       -1.80390
C          4.71330       -0.89060       -1.24210
C          4.32930        0.44970       -1.48700
H          1.32082       -1.25152        1.02496
H          2.41392       -1.68075       -0.39906
H          1.80864        1.03485        0.85913
H          1.88680        2.76910       -0.87910
H          3.18970        4.06390       -2.36490
H          5.07582        4.19023       -4.25513
H          7.53743        2.73037       -3.24387
H          7.37027        4.08739       -4.47842
H          6.97400        1.16630       -3.59170
H          7.55770       -1.09070       -3.06550
H          6.13490       -2.45930       -1.59940
H          4.13330       -1.56580       -0.64590
26

C          1.15428       -0.35412       -0.16608
C          2.23720        0.38980        0.09550
C          3.15160        1.02050       -0.91160
C          2.78280        2.31430       -1.28780
C          3.55400        3.07270       -2.15250
C          4.74630        2.57720       -2.70810
C          5.55630        3.45360       -3.63200
C          6.70132        3.10027       -4.23795
C          5.13670        1.23810       -2.38130
C          6.30790        0.65010       -2.92550
C          6.66300       -0.66190       -2.63190
C          5.86460       -1.43110       -1.80390
C          4.71330       -0.89060       -1.24210
C          4.32930        0.44970       -1.48700
H          0.59840       -0.79212        0.65674
H          0.82419       -0.59894       -1.16498
H          2.51697        0.46274        1.14397
H          1.88680        2.76910       -0.87910
H          3.18970        4.06390       -2.36490
H          5.23309        4.45481       -3.86627
H          7.17249        2.13466       -4.12891
H          7.19990        3.81282       -4.88825
H          6.97400        1.16630       -3.59170
H          7.55770       -1.09070       -3.06550
H          6.13490       -2.45930       -1.59940
H          4.13330       -1.56580       -0.64590
