
 OpenBabel02032211003D

 37 39  0  0  0  0  0  0  0  0999 V2000
    5.0714    2.1699    4.1608 C   0  0  0  0  0  0  0  0  0  0  0  0
    3.8940    2.1166    3.5200 C   0  0  0  0  0  0  0  0  0  0  0  0
    3.7330    2.3084    2.0710 C   0  0  0  0  0  0  0  0  0  0  0  0
    2.4767    2.2139    1.4855 C   0  0  0  0  0  0  0  0  0  0  0  0
    2.3668    2.3868    0.1109 C   0  0  0  0  0  0  0  0  0  0  0  0
    3.5092    2.6624   -0.6350 C   0  0  0  0  0  0  0  0  0  0  0  0
    4.7392    2.7730    0.0132 C   0  0  0  0  0  0  0  0  0  0  0  0
    5.9822    3.1473   -0.7027 C   0  0  0  0  0  0  0  0  0  0  0  0
    7.2104    3.2351   -0.0479 C   0  0  0  0  0  0  0  0  0  0  0  0
    8.3275    3.6734   -0.7467 C   0  0  0  0  0  0  0  0  0  0  0  0
    8.2012    3.9940   -2.0914 C   0  0  0  0  0  0  0  0  0  0  0  0
    6.9638    3.8495   -2.7185 C   0  0  0  0  0  0  0  0  0  0  0  0
    6.7920    4.0836   -4.1717 C   0  0  0  0  0  0  0  0  0  0  0  0
    5.5538    3.9623   -4.8031 C   0  0  0  0  0  0  0  0  0  0  0  0
    5.4746    4.1089   -6.1841 C   0  0  0  0  0  0  0  0  0  0  0  0
    6.6322    4.3868   -6.9043 C   0  0  0  0  0  0  0  0  0  0  0  0
    7.8333    4.5222   -6.2172 C   0  0  0  0  0  0  0  0  0  0  0  0
    9.0718    4.8232   -6.9498 C   0  0  0  0  0  0  0  0  0  0  0  0
   10.2771    4.9873   -6.3819 C   0  0  0  0  0  0  0  0  0  0  0  0
    7.9211    4.3769   -4.8753 N   0  0  0  0  0  0  0  0  0  0  0  0
    5.8618    3.4412   -2.0279 N   0  0  0  0  0  0  0  0  0  0  0  0
    4.8484    2.5830    1.3565 N   0  0  0  0  0  0  0  0  0  0  0  0
    5.1292    2.0171    5.2328 H   0  0  0  0  0  0  0  0  0  0  0  0
    6.0000    2.3640    3.6317 H   0  0  0  0  0  0  0  0  0  0  0  0
    2.9917    1.9174    4.0883 H   0  0  0  0  0  0  0  0  0  0  0  0
    1.5925    2.0099    2.0794 H   0  0  0  0  0  0  0  0  0  0  0  0
    1.3992    2.3174   -0.3784 H   0  0  0  0  0  0  0  0  0  0  0  0
    3.4355    2.8061   -1.7085 H   0  0  0  0  0  0  0  0  0  0  0  0
    7.2959    2.9786    1.0041 H   0  0  0  0  0  0  0  0  0  0  0  0
    9.2880    3.7637   -0.2479 H   0  0  0  0  0  0  0  0  0  0  0  0
    9.0659    4.3391   -2.6503 H   0  0  0  0  0  0  0  0  0  0  0  0
    4.6601    3.7358   -4.2297 H   0  0  0  0  0  0  0  0  0  0  0  0
    4.5229    3.9982   -6.6927 H   0  0  0  0  0  0  0  0  0  0  0  0
    6.5871    4.4902   -7.9828 H   0  0  0  0  0  0  0  0  0  0  0  0
    8.9850    4.9161   -8.0271 H   0  0  0  0  0  0  0  0  0  0  0  0
   10.4215    4.9058   -5.3092 H   0  0  0  0  0  0  0  0  0  0  0  0
   11.1498    5.2068   -6.9887 H   0  0  0  0  0  0  0  0  0  0  0  0
  1  2  2  0  0  0  0
  1 23  1  0  0  0  0
  1 24  1  0  0  0  0
  2  3  1  0  0  0  0
  2 25  1  0  0  0  0
  3  4  1  0  0  0  0
  3 22  2  0  0  0  0
  4  5  2  0  0  0  0
  4 26  1  0  0  0  0
  5  6  1  0  0  0  0
  5 27  1  0  0  0  0
  6  7  2  0  0  0  0
  6 28  1  0  0  0  0
  7  8  1  0  0  0  0
  7 22  1  0  0  0  0
  8  9  1  0  0  0  0
  8 21  2  0  0  0  0
  9 10  2  0  0  0  0
  9 29  1  0  0  0  0
 10 11  1  0  0  0  0
 10 30  1  0  0  0  0
 11 12  2  0  0  0  0
 11 31  1  0  0  0  0
 12 13  1  0  0  0  0
 12 21  1  0  0  0  0
 13 14  1  0  0  0  0
 13 20  2  0  0  0  0
 14 15  2  0  0  0  0
 14 32  1  0  0  0  0
 15 16  1  0  0  0  0
 15 33  1  0  0  0  0
 16 17  2  0  0  0  0
 16 34  1  0  0  0  0
 17 18  1  0  0  0  0
 17 20  1  0  0  0  0
 18 19  2  0  0  0  0
 18 35  1  0  0  0  0
 19 36  1  0  0  0  0
 19 37  1  0  0  0  0
M  END
