18

C          0.92320        0.02980        0.05270
C          2.42640        0.07440        0.05260
C          3.11460        1.30230        0.05060
F          2.41720        2.46870        0.04840
C          4.52220        1.32720        0.05070
C          5.27260        2.63080        0.04860
C          5.23520        0.11740        0.05370
F          6.59290        0.12030        0.05390
C          4.55200       -1.10290        0.05500
F          5.24870       -2.26690        0.05740
C          3.15530       -1.12660        0.05450
F          2.50970       -2.32100        0.05630
H          0.47450        1.04500        0.05270
H          0.56610       -0.50460        0.95780
H          0.56570       -0.50500       -0.85210
H          4.59060        3.50630        0.04610
H          5.91330        2.69050       -0.85620
H          5.91200        2.69450        0.95390
