19

C          1.35809        1.02227        0.11048
C          2.35600        0.13660       -0.01750
C          3.10590       -0.43560        1.11130
C          2.67450       -1.61550        1.71330
C          3.39670       -2.13670        2.79200
C          3.03930       -3.39090        3.46920
C          2.22629       -3.52479        4.52248
F          1.62875       -2.46002        5.09579
F          2.01598       -4.75672        5.03337
C          4.54620       -1.46170        3.20560
C          4.90500       -0.29680        2.55000
N          4.21190        0.22750        1.52040
H          0.83916        1.40814       -0.75994
H          1.03593        1.37999        1.08455
H          2.64290       -0.19466       -1.01111
H          1.79030       -2.11970        1.33810
H          3.50380       -4.29323        3.08084
H          5.15630       -1.82110        4.02770
H          5.78840        0.26280        2.84440
19

C          2.59308       -0.15142       -1.30492
C          2.35600        0.13660       -0.01750
C          3.10590       -0.43560        1.11130
C          2.67450       -1.61550        1.71330
C          3.39670       -2.13670        2.79200
C          3.03930       -3.39090        3.46920
C          3.47469       -4.61670        3.15909
F          4.32710       -4.82753        2.13516
F          3.03252       -5.66917        3.87998
C          4.54620       -1.46170        3.20560
C          4.90500       -0.29680        2.55000
N          4.21190        0.22750        1.52040
H          2.00777        0.30432       -2.09582
H          3.37601       -0.84542       -1.59812
H          1.56438        0.83800        0.22885
H          1.79030       -2.11970        1.33810
H          2.33303       -3.30636        4.29068
H          5.15630       -1.82110        4.02770
H          5.78840        0.26280        2.84440
19

C          2.59308       -0.15142       -1.30492
C          2.35600        0.13660       -0.01750
C          3.10590       -0.43560        1.11130
C          2.67450       -1.61550        1.71330
C          3.39670       -2.13670        2.79200
C          3.03930       -3.39090        3.46920
C          2.22629       -3.52479        4.52248
F          1.62875       -2.46002        5.09579
F          2.01598       -4.75672        5.03337
C          4.54620       -1.46170        3.20560
C          4.90500       -0.29680        2.55000
N          4.21190        0.22750        1.52040
H          2.00777        0.30432       -2.09582
H          3.37601       -0.84542       -1.59812
H          1.56438        0.83800        0.22885
H          1.79030       -2.11970        1.33810
H          3.50380       -4.29323        3.08084
H          5.15630       -1.82110        4.02770
H          5.78840        0.26280        2.84440
19

C          2.90930        0.85394       -1.00537
C          2.35600        0.13660       -0.01750
C          3.10590       -0.43560        1.11130
C          2.67450       -1.61550        1.71330
C          3.39670       -2.13670        2.79200
C          3.03930       -3.39090        3.46920
C          2.22629       -3.52479        4.52248
F          1.62875       -2.46002        5.09579
F          2.01598       -4.75672        5.03337
C          4.54620       -1.46170        3.20560
C          4.90500       -0.29680        2.55000
N          4.21190        0.22750        1.52040
H          2.30420        1.25322       -1.81174
H          3.97581        1.06010       -1.03066
H          1.28505       -0.04274       -0.03203
H          1.79030       -2.11970        1.33810
H          3.50380       -4.29323        3.08084
H          5.15630       -1.82110        4.02770
H          5.78840        0.26280        2.84440
19

C          1.35809        1.02227        0.11048
C          2.35600        0.13660       -0.01750
C          3.10590       -0.43560        1.11130
C          2.67450       -1.61550        1.71330
C          3.39670       -2.13670        2.79200
C          3.03930       -3.39090        3.46920
C          3.47469       -4.61670        3.15909
F          4.32710       -4.82753        2.13516
F          3.03252       -5.66917        3.87998
C          4.54620       -1.46170        3.20560
C          4.90500       -0.29680        2.55000
N          4.21190        0.22750        1.52040
H          0.83916        1.40814       -0.75994
H          1.03593        1.37999        1.08455
H          2.64290       -0.19466       -1.01111
H          1.79030       -2.11970        1.33810
H          2.33303       -3.30636        4.29068
H          5.15630       -1.82110        4.02770
H          5.78840        0.26280        2.84440
19

C          1.64594       -0.58537       -0.89568
C          2.35600        0.13660       -0.01750
C          3.10590       -0.43560        1.11130
C          2.67450       -1.61550        1.71330
C          3.39670       -2.13670        2.79200
C          3.03930       -3.39090        3.46920
C          3.47469       -4.61670        3.15909
F          4.32710       -4.82753        2.13516
F          3.03252       -5.66917        3.87998
C          4.54620       -1.46170        3.20560
C          4.90500       -0.29680        2.55000
N          4.21190        0.22750        1.52040
H          1.11441       -0.10725       -1.71096
H          1.58075       -1.66746       -0.82217
H          2.39475        1.21589       -0.13123
H          1.79030       -2.11970        1.33810
H          2.33303       -3.30636        4.29068
H          5.15630       -1.82110        4.02770
H          5.78840        0.26280        2.84440
19

C          1.03504       -0.00478       -0.19553
C          2.35600        0.13660       -0.01750
C          3.10590       -0.43560        1.11130
C          2.67450       -1.61550        1.71330
C          3.39670       -2.13670        2.79200
C          3.03930       -3.39090        3.46920
C          3.47469       -4.61670        3.15909
F          4.32710       -4.82753        2.13516
F          3.03252       -5.66917        3.87998
C          4.54620       -1.46170        3.20560
C          4.90500       -0.29680        2.55000
N          4.21190        0.22750        1.52040
H          0.53634        0.43877       -1.05015
H          0.42319       -0.56662        0.50486
H          2.92826        0.70507       -0.74460
H          1.79030       -2.11970        1.33810
H          2.33303       -3.30636        4.29068
H          5.15630       -1.82110        4.02770
H          5.78840        0.26280        2.84440
19

C          2.59308       -0.15142       -1.30492
C          2.35600        0.13660       -0.01750
C          3.10590       -0.43560        1.11130
C          2.67450       -1.61550        1.71330
C          3.39670       -2.13670        2.79200
C          3.03930       -3.39090        3.46920
C          3.87999       -4.24223        4.06652
F          5.20962       -4.01773        4.10070
F          3.38295       -5.36298        4.63200
C          4.54620       -1.46170        3.20560
C          4.90500       -0.29680        2.55000
N          4.21190        0.22750        1.52040
H          2.00777        0.30432       -2.09582
H          3.37601       -0.84542       -1.59812
H          1.56438        0.83800        0.22885
H          1.79030       -2.11970        1.33810
H          1.98541       -3.65553        3.46055
H          5.15630       -1.82110        4.02770
H          5.78840        0.26280        2.84440
19

C          1.35809        1.02227        0.11048
C          2.35600        0.13660       -0.01750
C          3.10590       -0.43560        1.11130
C          2.67450       -1.61550        1.71330
C          3.39670       -2.13670        2.79200
C          3.03930       -3.39090        3.46920
C          3.87999       -4.24223        4.06652
F          5.20962       -4.01773        4.10070
F          3.38295       -5.36298        4.63200
C          4.54620       -1.46170        3.20560
C          4.90500       -0.29680        2.55000
N          4.21190        0.22750        1.52040
H          0.83916        1.40814       -0.75994
H          1.03593        1.37999        1.08455
H          2.64290       -0.19466       -1.01111
H          1.79030       -2.11970        1.33810
H          1.98541       -3.65553        3.46055
H          5.15630       -1.82110        4.02770
H          5.78840        0.26280        2.84440
19

C          1.35809        1.02227        0.11048
C          2.35600        0.13660       -0.01750
C          3.10590       -0.43560        1.11130
C          2.67450       -1.61550        1.71330
C          3.39670       -2.13670        2.79200
C          3.03930       -3.39090        3.46920
C          3.24913       -3.69045        4.75550
F          3.84605       -2.82134        5.59682
F          2.86926       -4.90189        5.21485
C          4.54620       -1.46170        3.20560
C          4.90500       -0.29680        2.55000
N          4.21190        0.22750        1.52040
H          0.83916        1.40814       -0.75994
H          1.03593        1.37999        1.08455
H          2.64290       -0.19466       -1.01111
H          1.79030       -2.11970        1.33810
H          2.57704       -4.15423        2.84917
H          5.15630       -1.82110        4.02770
H          5.78840        0.26280        2.84440
