 xtb: 6.5.0 (unknown)
          08112216343D

 19  0  0     0  0            999 V2000
   -3.0720   -2.1852    0.1318 c   0  0  0  0  0  0  0  0  0  0  0  0
   -3.1595   -0.8625    0.0723 c   0  0  0  0  0  0  0  0  0  0  0  0
   -2.0502    0.0798   -0.0353 c   0  0  0  0  0  0  0  0  0  0  0  0
   -0.7098   -0.3095   -0.0745 c   0  0  0  0  0  0  0  0  0  0  0  0
    0.2818    0.6620   -0.1842 c   0  0  0  0  0  0  0  0  0  0  0  0
    1.7062    0.3657   -0.2389 c   0  0  0  0  0  0  0  0  0  0  0  0
    2.2996   -0.8166   -0.1697 c   0  0  0  0  0  0  0  0  0  0  0  0
    1.7325   -2.0071   -0.0277 f   0  0  0  0  0  0  0  0  0  0  0  0
    3.6186   -0.9719   -0.2350 f   0  0  0  0  0  0  0  0  0  0  0  0
   -0.1240    1.9986   -0.2490 c   0  0  0  0  0  0  0  0  0  0  0  0
   -1.4776    2.2834   -0.1996 c   0  0  0  0  0  0  0  0  0  0  0  0
   -2.4138    1.3619   -0.0967 n   0  0  0  0  0  0  0  0  0  0  0  0
   -3.9537   -2.7981    0.2087 h   0  0  0  0  0  0  0  0  0  0  0  0
   -2.1340   -2.7136    0.1071 h   0  0  0  0  0  0  0  0  0  0  0  0
   -4.1252   -0.3763    0.0990 h   0  0  0  0  0  0  0  0  0  0  0  0
   -0.4560   -1.3535   -0.0217 h   0  0  0  0  0  0  0  0  0  0  0  0
    2.3700    1.2113   -0.3516 h   0  0  0  0  0  0  0  0  0  0  0  0
    0.6032    2.7910   -0.3351 h   0  0  0  0  0  0  0  0  0  0  0  0
   -1.8322    3.3050   -0.2462 h   0  0  0  0  0  0  0  0  0  0  0  0
M  END
