
  xtb     02032211343D
 xtb: 6.4.1 (23d549d)
 23 23  0     0  0            999 V2000
    0.6423   -4.6064    0.0837 C   0  0  0  0  0  0  0  0  0  0  0  0
   -0.3142   -3.7006   -0.0783 C   0  0  0  0  0  0  0  0  0  0  0  0
   -0.1502   -2.2511   -0.0507 C   0  0  0  0  0  0  0  0  0  0  0  0
    1.0955   -1.6282   -0.0416 C   0  0  0  0  0  0  0  0  0  0  0  0
    1.2274   -0.2412   -0.0130 C   0  0  0  0  0  0  0  0  0  0  0  0
    2.5720    0.3148   -0.0079 C   0  0  0  0  0  0  0  0  0  0  0  0
    2.9363    1.5891    0.0156 C   0  0  0  0  0  0  0  0  0  0  0  0
    2.1590    2.6600    0.0401 F   0  0  0  0  0  0  0  0  0  0  0  0
    4.2074    1.9754    0.0177 F   0  0  0  0  0  0  0  0  0  0  0  0
    0.0759    0.5490    0.0073 C   0  0  0  0  0  0  0  0  0  0  0  0
   -1.1648   -0.0656   -0.0054 C   0  0  0  0  0  0  0  0  0  0  0  0
   -2.4268    0.7514    0.0056 C   0  0  0  0  0  0  0  0  0  0  0  0
   -2.2148    2.0683    0.1030 F   0  0  0  0  0  0  0  0  0  0  0  0
   -3.1556    0.5641   -1.1119 F   0  0  0  0  0  0  0  0  0  0  0  0
   -3.2340    0.4176    1.0303 F   0  0  0  0  0  0  0  0  0  0  0  0
   -1.2892   -1.4464   -0.0382 C   0  0  0  0  0  0  0  0  0  0  0  0
    0.4223   -5.6593    0.0525 H   0  0  0  0  0  0  0  0  0  0  0  0
    1.6721   -4.3471    0.2609 H   0  0  0  0  0  0  0  0  0  0  0  0
   -1.3328   -4.0324   -0.2334 H   0  0  0  0  0  0  0  0  0  0  0  0
    1.9890   -2.2323   -0.0658 H   0  0  0  0  0  0  0  0  0  0  0  0
    3.3869   -0.3942   -0.0256 H   0  0  0  0  0  0  0  0  0  0  0  0
    0.1358    1.6240    0.0307 H   0  0  0  0  0  0  0  0  0  0  0  0
   -2.2720   -1.8937   -0.0483 H   0  0  0  0  0  0  0  0  0  0  0  0
  1  2  2  0  0  0  0
  2  3  1  0  0  0  0
  3  4  4  0  0  0  0
  4  5  4  0  0  0  0
  5  6  1  0  0  0  0
  6  7  2  0  0  0  0
  7  8  1  0  0  0  0
  7  9  1  0  0  0  0
  5 10  4  0  0  0  0
 10 11  4  0  0  0  0
 11 12  1  0  0  0  0
 12 13  1  0  0  0  0
 12 14  1  0  0  0  0
 12 15  1  0  0  0  0
  3 16  4  0  0  0  0
 11 16  4  0  0  0  0
  1 17  1  0  0  0  0
  1 18  1  0  0  0  0
  2 19  1  0  0  0  0
  4 20  1  0  0  0  0
  6 21  1  0  0  0  0
 10 22  1  0  0  0  0
 16 23  1  0  0  0  0
M  END
