
 OpenBabel02032211013D

 21 22  0  0  0  0  0  0  0  0999 V2000
    0.9404   -0.3424    0.0544 C   0  0  0  0  0  0  0  0  0  0  0  0
    2.2255    0.0334    0.0005 C   0  0  0  0  0  0  0  0  0  0  0  0
    2.9122    0.7226    1.0945 C   0  0  0  0  0  0  0  0  0  0  0  0
    2.6104    0.5422    2.4580 C   0  0  0  0  0  0  0  0  0  0  0  0
    3.2620    1.2392    3.4965 C   0  0  0  0  0  0  0  0  0  0  0  0
    2.8593    0.9562    4.7464 F   0  0  0  0  0  0  0  0  0  0  0  0
    4.2873    2.1851    3.2979 C   0  0  0  0  0  0  0  0  0  0  0  0
    4.9786    2.9368    4.3491 C   0  0  0  0  0  0  0  0  0  0  0  0
    4.4185    3.3201    5.5039 C   0  0  0  0  0  0  0  0  0  0  0  0
    4.6862    2.3640    1.9387 C   0  0  0  0  0  0  0  0  0  0  0  0
    5.6648    3.1707    1.4878 N   0  0  0  0  0  0  0  0  0  0  0  0
    5.7056    3.0150   -0.1598 S   0  0  0  0  0  0  0  0  0  0  0  0
    4.4892    1.9178   -0.3983 N   0  0  0  0  0  0  0  0  0  0  0  0
    3.9858    1.6176    0.8130 C   0  0  0  0  0  0  0  0  0  0  0  0
    0.4740   -0.8307   -0.7971 H   0  0  0  0  0  0  0  0  0  0  0  0
    0.3098   -0.1627    0.9186 H   0  0  0  0  0  0  0  0  0  0  0  0
    2.7965   -0.1392   -0.9096 H   0  0  0  0  0  0  0  0  0  0  0  0
    1.8386   -0.1684    2.7513 H   0  0  0  0  0  0  0  0  0  0  0  0
    6.0078    3.2255    4.1425 H   0  0  0  0  0  0  0  0  0  0  0  0
    3.3894    3.0906    5.7630 H   0  0  0  0  0  0  0  0  0  0  0  0
    4.9904    3.8945    6.2263 H   0  0  0  0  0  0  0  0  0  0  0  0
  1  2  2  0  0  0  0
  1 15  1  0  0  0  0
  1 16  1  0  0  0  0
  2  3  1  0  0  0  0
  2 17  1  0  0  0  0
  3  4  2  0  0  0  0
  3 14  1  0  0  0  0
  4  5  1  0  0  0  0
  4 18  1  0  0  0  0
  5  6  1  0  0  0  0
  5  7  2  0  0  0  0
  7  8  1  0  0  0  0
  7 10  1  0  0  0  0
  8  9  2  0  0  0  0
  8 19  1  0  0  0  0
  9 20  1  0  0  0  0
  9 21  1  0  0  0  0
 10 11  2  0  0  0  0
 10 14  1  0  0  0  0
 11 12  1  0  0  0  0
 12 13  1  0  0  0  0
 13 14  2  0  0  0  0
M  END
