
  xtb     02032211353D
 xtb: 6.4.1 (23d549d)
 37 39  0     0  0            999 V2000
   -6.0826   -1.1069    0.2436 C   0  0  0  0  0  0  0  0  0  0  0  0
   -5.7736    0.1342   -0.1095 C   0  0  0  0  0  0  0  0  0  0  0  0
   -4.4038    0.6231   -0.2336 C   0  0  0  0  0  0  0  0  0  0  0  0
   -4.1574    1.9611   -0.5574 C   0  0  0  0  0  0  0  0  0  0  0  0
   -2.8470    2.3962   -0.6572 C   0  0  0  0  0  0  0  0  0  0  0  0
   -1.8229    1.4940   -0.4348 C   0  0  0  0  0  0  0  0  0  0  0  0
   -2.1599    0.1748   -0.1221 C   0  0  0  0  0  0  0  0  0  0  0  0
   -1.1030   -0.8209    0.1117 C   0  0  0  0  0  0  0  0  0  0  0  0
   -1.4119   -2.1739    0.2656 C   0  0  0  0  0  0  0  0  0  0  0  0
   -0.3745   -3.0661    0.4642 C   0  0  0  0  0  0  0  0  0  0  0  0
    0.9245   -2.5883    0.5180 C   0  0  0  0  0  0  0  0  0  0  0  0
    1.1367   -1.2159    0.3691 C   0  0  0  0  0  0  0  0  0  0  0  0
    2.4921   -0.6345    0.4265 C   0  0  0  0  0  0  0  0  0  0  0  0
    3.4720   -1.1617    1.2703 C   0  0  0  0  0  0  0  0  0  0  0  0
    4.7216   -0.5655    1.2788 C   0  0  0  0  0  0  0  0  0  0  0  0
    4.9571    0.5238    0.4607 C   0  0  0  0  0  0  0  0  0  0  0  0
    3.9154    0.9951   -0.3445 C   0  0  0  0  0  0  0  0  0  0  0  0
    4.0336    2.1416   -1.2405 C   0  0  0  0  0  0  0  0  0  0  0  0
    5.1028    2.9097   -1.4052 C   0  0  0  0  0  0  0  0  0  0  0  0
    2.7190    0.4151   -0.3483 N   0  0  0  0  0  0  0  0  0  0  0  0
    0.1421   -0.3656    0.1638 N   0  0  0  0  0  0  0  0  0  0  0  0
   -3.4153   -0.2422   -0.0266 N   0  0  0  0  0  0  0  0  0  0  0  0
   -7.1023   -1.4406    0.3306 H   0  0  0  0  0  0  0  0  0  0  0  0
   -5.3063   -1.8209    0.4570 H   0  0  0  0  0  0  0  0  0  0  0  0
   -6.5477    0.8604   -0.3214 H   0  0  0  0  0  0  0  0  0  0  0  0
   -4.9819    2.6384   -0.7236 H   0  0  0  0  0  0  0  0  0  0  0  0
   -2.6294    3.4256   -0.9056 H   0  0  0  0  0  0  0  0  0  0  0  0
   -0.7825    1.7670   -0.4955 H   0  0  0  0  0  0  0  0  0  0  0  0
   -2.4410   -2.4886    0.2178 H   0  0  0  0  0  0  0  0  0  0  0  0
   -0.5717   -4.1235    0.5730 H   0  0  0  0  0  0  0  0  0  0  0  0
    1.7560   -3.2635    0.6498 H   0  0  0  0  0  0  0  0  0  0  0  0
    3.2546   -1.9983    1.9161 H   0  0  0  0  0  0  0  0  0  0  0  0
    5.5035   -0.9464    1.9212 H   0  0  0  0  0  0  0  0  0  0  0  0
    5.9243    1.0000    0.4497 H   0  0  0  0  0  0  0  0  0  0  0  0
    3.1265    2.3387   -1.7952 H   0  0  0  0  0  0  0  0  0  0  0  0
    6.0250    2.7524   -0.8713 H   0  0  0  0  0  0  0  0  0  0  0  0
    5.0945    3.7396   -2.0910 H   0  0  0  0  0  0  0  0  0  0  0  0
  1  2  2  0  0  0  0
  2  3  1  0  0  0  0
  3  4  4  0  0  0  0
  4  5  4  0  0  0  0
  5  6  4  0  0  0  0
  6  7  4  0  0  0  0
  7  8  1  0  0  0  0
  8  9  4  0  0  0  0
  9 10  4  0  0  0  0
 10 11  4  0  0  0  0
 11 12  4  0  0  0  0
 12 13  1  0  0  0  0
 13 14  4  0  0  0  0
 14 15  4  0  0  0  0
 15 16  4  0  0  0  0
 16 17  4  0  0  0  0
 17 18  1  0  0  0  0
 18 19  2  0  0  0  0
 13 20  4  0  0  0  0
 17 20  4  0  0  0  0
  8 21  4  0  0  0  0
 12 21  4  0  0  0  0
  3 22  4  0  0  0  0
  7 22  4  0  0  0  0
  1 23  1  0  0  0  0
  1 24  1  0  0  0  0
  2 25  1  0  0  0  0
  4 26  1  0  0  0  0
  5 27  1  0  0  0  0
  6 28  1  0  0  0  0
  9 29  1  0  0  0  0
 10 30  1  0  0  0  0
 11 31  1  0  0  0  0
 14 32  1  0  0  0  0
 15 33  1  0  0  0  0
 16 34  1  0  0  0  0
 18 35  1  0  0  0  0
 19 36  1  0  0  0  0
 19 37  1  0  0  0  0
M  END
