30

C          2.51530        1.09580        0.02480
C          1.19880        0.37470        0.01400
C         -0.00560        1.08720        0.01310
C         -1.22850        0.40630        0.00250
C         -2.52520        1.16260        0.00070
C         -1.24480       -0.99580       -0.00710
C         -0.04250       -1.74250       -0.00730
C         -0.01940       -3.28700       -0.02070
C         -1.43549       -3.91218       -0.03364
C          0.72106       -3.77898       -1.28320
C          0.70863       -3.80344        1.23938
C          1.17580       -1.02650        0.00390
H          2.37810        2.19820        0.03120
H          3.09880        0.82050       -0.87880
H          3.09040        0.80890        0.93030
H          0.00860        2.17060        0.02040
H         -2.35910        2.26090        0.00840
H         -3.11650        0.89080        0.90040
H         -3.10700        0.90230       -0.90860
H         -2.20970       -1.48080       -0.01570
H         -1.99900       -3.60025       -0.93955
H         -2.00787       -3.61699        0.87243
H         -1.37539       -5.02228       -0.04377
H          0.20467       -3.41805       -2.19904
H          0.75100       -4.88978       -1.31398
H          1.76992       -3.41749       -1.31077
H          0.18313       -3.46126        2.15713
H          1.75716       -3.44286        1.28441
H          0.73860       -4.91474        1.24810
H          2.12020       -1.55470        0.00420
30

C          2.51530        1.09580        0.02480
C          1.19880        0.37470        0.01400
C         -0.00560        1.08720        0.01310
C         -1.22850        0.40630        0.00250
C         -2.52520        1.16260        0.00070
C         -1.24480       -0.99580       -0.00710
C         -0.04250       -1.74250       -0.00730
C         -0.01940       -3.28700       -0.02070
C         -1.24521       -3.90323       -0.73763
C          1.24743       -3.77568       -0.75593
C         -0.01110       -3.81586        1.43009
C          1.17580       -1.02650        0.00390
H          2.37810        2.19820        0.03120
H          3.09880        0.82050       -0.87880
H          3.09040        0.80890        0.93030
H          0.00860        2.17060        0.02040
H         -2.35910        2.26090        0.00840
H         -3.11650        0.89080        0.90040
H         -3.10700        0.90230       -0.90860
H         -2.20970       -1.48080       -0.01570
H         -1.28617       -3.58211       -1.80099
H         -2.19013       -3.61015       -0.23072
H         -1.19056       -5.01360       -0.72618
H          1.25244       -3.40580       -1.80419
H          1.28608       -4.88643       -0.77735
H          2.17349       -3.42059       -0.25808
H         -0.92094       -3.47615        1.97073
H          0.87877       -3.46212        1.99086
H          0.00804       -4.92736        1.44301
H          2.12020       -1.55470        0.00420
