
  xtb     02012214003D
 xtb: 6.4.1 (23d549d)
 24 24  0     0  0            999 V2000
    2.5725    1.0151    0.2526 c   0  0  0  0  0  0  0  0  0  0  0  0
    1.2491    0.3274    0.1073 c   0  0  0  0  0  0  0  0  0  0  0  0
    1.1462   -1.0549    0.1257 c   0  0  0  0  0  0  0  0  0  0  0  0
   -0.0876   -1.6641   -0.0108 c   0  0  0  0  0  0  0  0  0  0  0  0
   -1.2433   -0.9151   -0.1704 c   0  0  0  0  0  0  0  0  0  0  0  0
   -2.5694   -1.6112   -0.3082 c   0  0  0  0  0  0  0  0  0  0  0  0
   -3.3993   -1.5383    0.9665 c   0  0  0  0  0  0  0  0  0  0  0  0
   -3.0484   -1.0458    1.9953 o   0  0  0  0  0  0  0  0  0  0  0  0
   -4.6196   -2.1067    0.8576 o   0  0  0  0  0  0  0  0  0  0  0  0
   -1.1571    0.4793   -0.1831 c   0  0  0  0  0  0  0  0  0  0  0  0
   -2.3812    1.3307   -0.3385 c   0  0  0  0  0  0  0  0  0  0  0  0
    0.0878    1.0734   -0.0471 c   0  0  0  0  0  0  0  0  0  0  0  0
    3.3811    0.2925    0.3272 h   0  0  0  0  0  0  0  0  0  0  0  0
    2.5787    1.6364    1.1475 h   0  0  0  0  0  0  0  0  0  0  0  0
    2.7610    1.6628   -0.6028 h   0  0  0  0  0  0  0  0  0  0  0  0
    2.0325   -1.6603    0.2487 h   0  0  0  0  0  0  0  0  0  0  0  0
   -0.1506   -2.7434    0.0078 h   0  0  0  0  0  0  0  0  0  0  0  0
   -2.4096   -2.6700   -0.5357 h   0  0  0  0  0  0  0  0  0  0  0  0
   -3.1541   -1.1712   -1.1223 h   0  0  0  0  0  0  0  0  0  0  0  0
   -4.7875   -2.4693   -0.0220 h   0  0  0  0  0  0  0  0  0  0  0  0
   -3.0801    1.1382    0.4736 h   0  0  0  0  0  0  0  0  0  0  0  0
   -2.8866    1.1213   -1.2820 h   0  0  0  0  0  0  0  0  0  0  0  0
   -2.1168    2.3847   -0.3213 h   0  0  0  0  0  0  0  0  0  0  0  0
    0.1577    2.1525   -0.0570 h   0  0  0  0  0  0  0  0  0  0  0  0
  1  2  1  0  0  0  0
  2  3  4  0  0  0  0
  3  4  4  0  0  0  0
  4  5  4  0  0  0  0
  5  6  1  0  0  0  0
  6  7  1  0  0  0  0
  7  8  2  0  0  0  0
  7  9  1  0  0  0  0
  5 10  4  0  0  0  0
 10 11  1  0  0  0  0
  2 12  4  0  0  0  0
 10 12  4  0  0  0  0
  1 13  1  0  0  0  0
  1 14  1  0  0  0  0
  1 15  1  0  0  0  0
  3 16  1  0  0  0  0
  4 17  1  0  0  0  0
  6 18  1  0  0  0  0
  6 19  1  0  0  0  0
  9 20  1  0  0  0  0
 11 21  1  0  0  0  0
 11 22  1  0  0  0  0
 11 23  1  0  0  0  0
 12 24  1  0  0  0  0
M  END
