
  xtb     02032211363D
 xtb: 6.4.1 (23d549d)
 24 25  0     0  0            999 V2000
    5.5726   -0.3234   -0.2844 C   0  0  0  0  0  0  0  0  0  0  0  0
    4.3546   -0.2576   -0.8182 C   0  0  0  0  0  0  0  0  0  0  0  0
    3.1256   -0.1838   -0.0768 C   0  0  0  0  0  0  0  0  0  0  0  0
    2.9086   -0.1668    1.2805 C   0  0  0  0  0  0  0  0  0  0  0  0
    1.5581   -0.0869    1.6314 C   0  0  0  0  0  0  0  0  0  0  0  0
    0.7116   -0.0408    0.5453 C   0  0  0  0  0  0  0  0  0  0  0  0
   -0.7115    0.0429    0.5453 C   0  0  0  0  0  0  0  0  0  0  0  0
   -1.5574    0.0969    1.6315 C   0  0  0  0  0  0  0  0  0  0  0  0
   -2.9080    0.1753    1.2806 C   0  0  0  0  0  0  0  0  0  0  0  0
   -3.1257    0.1831   -0.0766 C   0  0  0  0  0  0  0  0  0  0  0  0
   -4.3548    0.2531   -0.8180 C   0  0  0  0  0  0  0  0  0  0  0  0
   -5.5725    0.3249   -0.2845 C   0  0  0  0  0  0  0  0  0  0  0  0
   -1.6166    0.0914   -0.9362 S   0  0  0  0  0  0  0  0  0  0  0  0
    1.6161   -0.0985   -0.9363 S   0  0  0  0  0  0  0  0  0  0  0  0
    6.4509   -0.3764   -0.9029 H   0  0  0  0  0  0  0  0  0  0  0  0
    5.7332   -0.3262    0.7796 H   0  0  0  0  0  0  0  0  0  0  0  0
    4.2390   -0.2569   -1.8944 H   0  0  0  0  0  0  0  0  0  0  0  0
    3.7028   -0.2112    2.0034 H   0  0  0  0  0  0  0  0  0  0  0  0
    1.2087   -0.0632    2.6477 H   0  0  0  0  0  0  0  0  0  0  0  0
   -1.2076    0.0800    2.6478 H   0  0  0  0  0  0  0  0  0  0  0  0
   -3.7019    0.2249    2.0036 H   0  0  0  0  0  0  0  0  0  0  0  0
   -4.2397    0.2442   -1.8942 H   0  0  0  0  0  0  0  0  0  0  0  0
   -5.7329    0.3363    0.7795 H   0  0  0  0  0  0  0  0  0  0  0  0
   -6.4509    0.3745   -0.9031 H   0  0  0  0  0  0  0  0  0  0  0  0
  1  2  2  0  0  0  0
  2  3  1  0  0  0  0
  3  4  4  0  0  0  0
  4  5  4  0  0  0  0
  5  6  4  0  0  0  0
  6  7  1  0  0  0  0
  7  8  4  0  0  0  0
  8  9  4  0  0  0  0
  9 10  4  0  0  0  0
 10 11  1  0  0  0  0
 11 12  2  0  0  0  0
  7 13  1  0  0  0  0
 10 13  1  0  0  0  0
  3 14  1  0  0  0  0
  6 14  1  0  0  0  0
  1 15  1  0  0  0  0
  1 16  1  0  0  0  0
  2 17  1  0  0  0  0
  4 18  1  0  0  0  0
  5 19  1  0  0  0  0
  8 20  1  0  0  0  0
  9 21  1  0  0  0  0
 11 22  1  0  0  0  0
 12 23  1  0  0  0  0
 12 24  1  0  0  0  0
M  END
