
 OpenBabel02012213473D

 28 30  0  0  0  0  0  0  0  0999 V2000
    0.9983    0.0394    0.0989 C   0  0  0  0  0  0  0  0  0  0  0  0
    2.5005    0.0460    0.0966 C   0  0  0  0  0  0  0  0  0  0  0  0
    3.2114   -1.1758    0.0958 C   0  0  0  0  0  0  0  0  0  0  0  0
    4.6108   -1.2072    0.0889 C   0  0  0  0  0  0  0  0  0  0  0  0
    5.2954   -0.0055    0.0843 C   0  0  0  0  0  0  0  0  0  0  0  0
    4.5843    1.2026    0.0873 C   0  0  0  0  0  0  0  0  0  0  0  0
    3.2018    1.2626    0.0929 C   0  0  0  0  0  0  0  0  0  0  0  0
    5.5829    2.3072    0.0832 C   0  0  0  0  0  0  0  0  0  0  0  0
    5.3513    3.4971    0.0847 O   0  0  0  0  0  0  0  0  0  0  0  0
    6.9186    1.6572    0.0778 C   0  0  0  0  0  0  0  0  0  0  0  0
    8.1789    2.2304    0.0732 C   0  0  0  0  0  0  0  0  0  0  0  0
    9.2847    1.3657    0.0689 C   0  0  0  0  0  0  0  0  0  0  0  0
   10.6878    1.9013    0.0644 C   0  0  0  0  0  0  0  0  0  0  0  0
    9.0838   -0.0344    0.0689 C   0  0  0  0  0  0  0  0  0  0  0  0
    7.7986   -0.5886    0.0733 C   0  0  0  0  0  0  0  0  0  0  0  0
    6.7135    0.2695    0.0777 C   0  0  0  0  0  0  0  0  0  0  0  0
    0.6036   -0.9828    0.1018 H   0  0  0  0  0  0  0  0  0  0  0  0
    0.6159    0.5405   -0.7958 H   0  0  0  0  0  0  0  0  0  0  0  0
    0.6176    0.5454    0.9914 H   0  0  0  0  0  0  0  0  0  0  0  0
    2.6685   -2.1200    0.1006 H   0  0  0  0  0  0  0  0  0  0  0  0
    5.1353   -2.1567    0.0871 H   0  0  0  0  0  0  0  0  0  0  0  0
    2.6890    2.2195    0.0941 H   0  0  0  0  0  0  0  0  0  0  0  0
    8.2934    3.3096    0.0739 H   0  0  0  0  0  0  0  0  0  0  0  0
   10.7012    2.9956    0.0652 H   0  0  0  0  0  0  0  0  0  0  0  0
   11.2189    1.5578   -0.8295 H   0  0  0  0  0  0  0  0  0  0  0  0
   11.2253    1.5563    0.9539 H   0  0  0  0  0  0  0  0  0  0  0  0
    9.9440   -0.7032    0.0656 H   0  0  0  0  0  0  0  0  0  0  0  0
    7.6675   -1.6655    0.0733 H   0  0  0  0  0  0  0  0  0  0  0  0
  1  2  1  0  0  0  0
  1 17  1  0  0  0  0
  1 18  1  0  0  0  0
  1 19  1  0  0  0  0
  2  3  1  0  0  0  0
  2  7  2  0  0  0  0
  3  4  2  0  0  0  0
  3 20  1  0  0  0  0
  4  5  1  0  0  0  0
  4 21  1  0  0  0  0
  5  6  2  0  0  0  0
  5 16  1  0  0  0  0
  6  7  1  0  0  0  0
  6  8  1  0  0  0  0
  7 22  1  0  0  0  0
  8  9  2  0  0  0  0
  8 10  1  0  0  0  0
 10 11  1  0  0  0  0
 10 16  2  0  0  0  0
 11 12  2  0  0  0  0
 11 23  1  0  0  0  0
 12 13  1  0  0  0  0
 12 14  1  0  0  0  0
 13 24  1  0  0  0  0
 13 25  1  0  0  0  0
 13 26  1  0  0  0  0
 14 15  2  0  0  0  0
 14 27  1  0  0  0  0
 15 16  1  0  0  0  0
 15 28  1  0  0  0  0
M  END
