
  xtb     02032211353D
 xtb: 6.4.1 (23d549d)
 38 39  0     0  0            999 V2000
    5.2855   -1.3885    0.6569 C   0  0  0  0  0  0  0  0  0  0  0  0
    4.1340   -1.8050    0.1431 C   0  0  0  0  0  0  0  0  0  0  0  0
    2.9476   -1.0003   -0.1142 C   0  0  0  0  0  0  0  0  0  0  0  0
    1.8166   -1.6118   -0.6526 C   0  0  0  0  0  0  0  0  0  0  0  0
    0.6673   -0.8932   -0.9153 C   0  0  0  0  0  0  0  0  0  0  0  0
    0.6018    0.4683   -0.6434 C   0  0  0  0  0  0  0  0  0  0  0  0
   -0.4744    1.2684   -0.8938 O   0  0  0  0  0  0  0  0  0  0  0  0
   -1.7707    0.7411   -1.0576 C   0  0  0  0  0  0  0  0  0  0  0  0
   -2.5037    0.6433    0.3021 C   0  0  0  0  0  0  0  0  0  0  0  0
   -2.1013   -0.5851    1.1291 C   0  0  0  0  0  0  0  0  0  0  0  0
   -2.7295   -1.8628    0.5761 C   0  0  0  0  0  0  0  0  0  0  0  0
   -4.2374   -1.6617    0.4551 C   0  0  0  0  0  0  0  0  0  0  0  0
   -4.5091   -0.4234   -0.3973 C   0  0  0  0  0  0  0  0  0  0  0  0
   -3.9057    0.7349    0.1411 O   0  0  0  0  0  0  0  0  0  0  0  0
    1.7360    1.1131   -0.1009 C   0  0  0  0  0  0  0  0  0  0  0  0
    1.6744    2.5461    0.1712 C   0  0  0  0  0  0  0  0  0  0  0  0
    2.4666    3.2155    0.9989 C   0  0  0  0  0  0  0  0  0  0  0  0
    2.8793    0.3668    0.1449 C   0  0  0  0  0  0  0  0  0  0  0  0
    6.1071   -2.0670    0.8097 H   0  0  0  0  0  0  0  0  0  0  0  0
    5.4608   -0.3663    0.9446 H   0  0  0  0  0  0  0  0  0  0  0  0
    4.0298   -2.8504   -0.1229 H   0  0  0  0  0  0  0  0  0  0  0  0
    1.8362   -2.6692   -0.8758 H   0  0  0  0  0  0  0  0  0  0  0  0
   -0.1752   -1.4139   -1.3431 H   0  0  0  0  0  0  0  0  0  0  0  0
   -1.7636   -0.2130   -1.5888 H   0  0  0  0  0  0  0  0  0  0  0  0
   -2.3045    1.4747   -1.6708 H   0  0  0  0  0  0  0  0  0  0  0  0
   -2.2381    1.5517    0.8576 H   0  0  0  0  0  0  0  0  0  0  0  0
   -2.4584   -0.4343    2.1502 H   0  0  0  0  0  0  0  0  0  0  0  0
   -1.0137   -0.6640    1.1589 H   0  0  0  0  0  0  0  0  0  0  0  0
   -2.5066   -2.7000    1.2398 H   0  0  0  0  0  0  0  0  0  0  0  0
   -2.3154   -2.1011   -0.4060 H   0  0  0  0  0  0  0  0  0  0  0  0
   -4.6655   -1.5105    1.4476 H   0  0  0  0  0  0  0  0  0  0  0  0
   -4.7131   -2.5309   -0.0006 H   0  0  0  0  0  0  0  0  0  0  0  0
   -5.5772   -0.1959   -0.4259 H   0  0  0  0  0  0  0  0  0  0  0  0
   -4.1628   -0.5956   -1.4269 H   0  0  0  0  0  0  0  0  0  0  0  0
    0.8836    3.0673   -0.3497 H   0  0  0  0  0  0  0  0  0  0  0  0
    3.2463    2.7411    1.5709 H   0  0  0  0  0  0  0  0  0  0  0  0
    2.3540    4.2760    1.1453 H   0  0  0  0  0  0  0  0  0  0  0  0
    3.7450    0.8740    0.5380 H   0  0  0  0  0  0  0  0  0  0  0  0
  1  2  2  0  0  0  0
  2  3  1  0  0  0  0
  3  4  4  0  0  0  0
  4  5  4  0  0  0  0
  5  6  4  0  0  0  0
  6  7  1  0  0  0  0
  7  8  1  0  0  0  0
  8  9  1  0  0  0  0
  9 10  1  0  0  0  0
 10 11  1  0  0  0  0
 11 12  1  0  0  0  0
 12 13  1  0  0  0  0
  9 14  1  0  0  0  0
 13 14  1  0  0  0  0
  6 15  4  0  0  0  0
 15 16  1  0  0  0  0
 16 17  2  0  0  0  0
  3 18  4  0  0  0  0
 15 18  4  0  0  0  0
  1 19  1  0  0  0  0
  1 20  1  0  0  0  0
  2 21  1  0  0  0  0
  4 22  1  0  0  0  0
  5 23  1  0  0  0  0
  8 24  1  0  0  0  0
  8 25  1  0  0  0  0
  9 26  1  0  0  0  0
 10 27  1  0  0  0  0
 10 28  1  0  0  0  0
 11 29  1  0  0  0  0
 11 30  1  0  0  0  0
 12 31  1  0  0  0  0
 12 32  1  0  0  0  0
 13 33  1  0  0  0  0
 13 34  1  0  0  0  0
 16 35  1  0  0  0  0
 17 36  1  0  0  0  0
 17 37  1  0  0  0  0
 18 38  1  0  0  0  0
M  END
