
 OpenBabel02012214063D

 20 20  0  0  0  0  0  0  0  0999 V2000
    0.9756   -0.0308    0.0651 C   0  0  0  0  0  0  0  0  0  0  0  0
    2.4608    0.0330   -0.1115 C   0  0  0  0  0  0  0  0  0  0  0  0
    3.1259    1.2611   -0.2143 C   0  0  0  0  0  0  0  0  0  0  0  0
    4.5201    1.2921   -0.3816 C   0  0  0  0  0  0  0  0  0  0  0  0
    5.2139    2.6244   -0.4907 C   0  0  0  0  0  0  0  0  0  0  0  0
    5.2331    0.0698   -0.4432 C   0  0  0  0  0  0  0  0  0  0  0  0
    6.7276   -0.0090   -0.6217 C   0  0  0  0  0  0  0  0  0  0  0  0
    4.5186   -1.1325   -0.3338 C   0  0  0  0  0  0  0  0  0  0  0  0
    3.1705   -1.1233   -0.1733 N   0  0  0  0  0  0  0  0  0  0  0  0
    0.5233    0.9832    0.0988 H   0  0  0  0  0  0  0  0  0  0  0  0
    0.7378   -0.5562    1.0137 H   0  0  0  0  0  0  0  0  0  0  0  0
    0.5266   -0.5901   -0.7822 H   0  0  0  0  0  0  0  0  0  0  0  0
    2.5615    2.1848   -0.1652 H   0  0  0  0  0  0  0  0  0  0  0  0
    4.4966    3.4697   -0.4205 H   0  0  0  0  0  0  0  0  0  0  0  0
    5.7338    2.6989   -1.4689 H   0  0  0  0  0  0  0  0  0  0  0  0
    5.9508    2.7336    0.3325 H   0  0  0  0  0  0  0  0  0  0  0  0
    7.2130    0.9830   -0.7008 H   0  0  0  0  0  0  0  0  0  0  0  0
    6.9595   -0.5754   -1.5483 H   0  0  0  0  0  0  0  0  0  0  0  0
    7.1762   -0.5389    0.2449 H   0  0  0  0  0  0  0  0  0  0  0  0
    5.0370   -2.0822   -0.3771 H   0  0  0  0  0  0  0  0  0  0  0  0
  1  2  1  0  0  0  0
  1 10  1  0  0  0  0
  1 11  1  0  0  0  0
  1 12  1  0  0  0  0
  2  3  1  0  0  0  0
  2  9  2  0  0  0  0
  3  4  2  0  0  0  0
  3 13  1  0  0  0  0
  4  5  1  0  0  0  0
  4  6  1  0  0  0  0
  5 14  1  0  0  0  0
  5 15  1  0  0  0  0
  5 16  1  0  0  0  0
  6  7  1  0  0  0  0
  6  8  2  0  0  0  0
  7 17  1  0  0  0  0
  7 18  1  0  0  0  0
  7 19  1  0  0  0  0
  8  9  1  0  0  0  0
  8 20  1  0  0  0  0
M  END
