
 OpenBabel02012214063D

 20 20  0  0  0  0  0  0  0  0999 V2000
    1.0021   -0.0419    0.0280 C   0  0  0  0  0  0  0  0  0  0  0  0
    2.4961    0.0360   -0.0618 C   0  0  0  0  0  0  0  0  0  0  0  0
    3.1431    1.2619   -0.1724 C   0  0  0  0  0  0  0  0  0  0  0  0
    4.5336    1.3035   -0.3449 C   0  0  0  0  0  0  0  0  0  0  0  0
    5.2164    2.6329   -0.4896 C   0  0  0  0  0  0  0  0  0  0  0  0
    5.2360    0.0904   -0.4068 C   0  0  0  0  0  0  0  0  0  0  0  0
    6.7118   -0.0120   -0.6468 C   0  0  0  0  0  0  0  0  0  0  0  0
    4.5015   -1.0835   -0.2526 C   0  0  0  0  0  0  0  0  0  0  0  0
    3.1621   -1.1400   -0.0866 N   0  0  0  0  0  0  0  0  0  0  0  0
    0.5497    0.9489    0.1375 H   0  0  0  0  0  0  0  0  0  0  0  0
    0.7056   -0.6492    0.8885 H   0  0  0  0  0  0  0  0  0  0  0  0
    0.6051   -0.4996   -0.8832 H   0  0  0  0  0  0  0  0  0  0  0  0
    2.5662    2.1824   -0.1405 H   0  0  0  0  0  0  0  0  0  0  0  0
    4.5152    3.4630   -0.3519 H   0  0  0  0  0  0  0  0  0  0  0  0
    5.6501    2.7278   -1.4901 H   0  0  0  0  0  0  0  0  0  0  0  0
    6.0027    2.7438    0.2644 H   0  0  0  0  0  0  0  0  0  0  0  0
    7.1863    0.9604   -0.8016 H   0  0  0  0  0  0  0  0  0  0  0  0
    6.8998   -0.6097   -1.5455 H   0  0  0  0  0  0  0  0  0  0  0  0
    7.2013   -0.4896    0.2075 H   0  0  0  0  0  0  0  0  0  0  0  0
    4.9903   -2.0555   -0.2743 H   0  0  0  0  0  0  0  0  0  0  0  0
  1  2  1  0  0  0  0
  1 10  1  0  0  0  0
  1 11  1  0  0  0  0
  1 12  1  0  0  0  0
  2  3  1  0  0  0  0
  2  9  2  0  0  0  0
  3  4  2  0  0  0  0
  3 13  1  0  0  0  0
  4  5  1  0  0  0  0
  4  6  1  0  0  0  0
  5 14  1  0  0  0  0
  5 15  1  0  0  0  0
  5 16  1  0  0  0  0
  6  7  1  0  0  0  0
  6  8  2  0  0  0  0
  7 17  1  0  0  0  0
  7 18  1  0  0  0  0
  7 19  1  0  0  0  0
  8  9  1  0  0  0  0
  8 20  1  0  0  0  0
M  END
