
  xtb     02012214063D
 xtb: 6.4.1 (23d549d)
 20 20  0     0  0            999 V2000
    1.0100   -0.0510    0.0619 c   0  0  0  0  0  0  0  0  0  0  0  0
    2.4939    0.0399   -0.1164 c   0  0  0  0  0  0  0  0  0  0  0  0
    3.1486    1.2600   -0.2181 c   0  0  0  0  0  0  0  0  0  0  0  0
    4.5281    1.3062   -0.3836 c   0  0  0  0  0  0  0  0  0  0  0  0
    5.2256    2.6284   -0.4924 c   0  0  0  0  0  0  0  0  0  0  0  0
    5.2179    0.0929   -0.4425 c   0  0  0  0  0  0  0  0  0  0  0  0
    6.7034   -0.0118   -0.6182 c   0  0  0  0  0  0  0  0  0  0  0  0
    4.4646   -1.0714   -0.3298 c   0  0  0  0  0  0  0  0  0  0  0  0
    3.1569   -1.1097   -0.1730 n   0  0  0  0  0  0  0  0  0  0  0  0
    0.5583    0.9365    0.0969 h   0  0  0  0  0  0  0  0  0  0  0  0
    0.7827   -0.5843    0.9828 h   0  0  0  0  0  0  0  0  0  0  0  0
    0.5755   -0.6173   -0.7595 h   0  0  0  0  0  0  0  0  0  0  0  0
    2.5827    2.1794   -0.1683 h   0  0  0  0  0  0  0  0  0  0  0  0
    4.5087    3.4427   -0.4216 h   0  0  0  0  0  0  0  0  0  0  0  0
    5.7468    2.7102   -1.4455 h   0  0  0  0  0  0  0  0  0  0  0  0
    5.9574    2.7433    0.3065 h   0  0  0  0  0  0  0  0  0  0  0  0
    7.1749    0.9623   -0.6948 h   0  0  0  0  0  0  0  0  0  0  0  0
    6.9320   -0.5793   -1.5198 h   0  0  0  0  0  0  0  0  0  0  0  0
    7.1412   -0.5434    0.2262 h   0  0  0  0  0  0  0  0  0  0  0  0
    4.9529   -2.0381   -0.3691 h   0  0  0  0  0  0  0  0  0  0  0  0
  1  2  1  0  0  0  0
  2  3  4  0  0  0  0
  3  4  4  0  0  0  0
  4  5  1  0  0  0  0
  4  6  4  0  0  0  0
  6  7  1  0  0  0  0
  6  8  4  0  0  0  0
  2  9  4  0  0  0  0
  8  9  4  0  0  0  0
  1 10  1  0  0  0  0
  1 11  1  0  0  0  0
  1 12  1  0  0  0  0
  3 13  1  0  0  0  0
  5 14  1  0  0  0  0
  5 15  1  0  0  0  0
  5 16  1  0  0  0  0
  7 17  1  0  0  0  0
  7 18  1  0  0  0  0
  7 19  1  0  0  0  0
  8 20  1  0  0  0  0
M  END
