
 OpenBabel02012213483D

 38 40  0  0  0  0  0  0  0  0999 V2000
    2.5596   -0.0543    0.0423 C   0  0  0  0  0  0  0  0  0  0  0  0
    1.0615   -0.0368    0.0481 C   0  0  0  0  0  0  0  0  0  0  0  0
    0.3348   -1.1028    0.5798 C   0  0  0  0  0  0  0  0  0  0  0  0
   -1.0621   -1.0919    0.5469 C   0  0  0  0  0  0  0  0  0  0  0  0
   -1.7773   -0.0140   -0.0036 C   0  0  0  0  0  0  0  0  0  0  0  0
   -3.2556   -0.0261   -0.0632 C   0  0  0  0  0  0  0  0  0  0  0  0
   -4.0254   -0.6715    0.9161 C   0  0  0  0  0  0  0  0  0  0  0  0
   -5.4215   -0.7238    0.8333 C   0  0  0  0  0  0  0  0  0  0  0  0
   -6.1181   -0.1008   -0.2133 C   0  0  0  0  0  0  0  0  0  0  0  0
   -7.5930   -0.1444   -0.2929 C   0  0  0  0  0  0  0  0  0  0  0  0
   -8.3890   -0.1537    0.8659 C   0  0  0  0  0  0  0  0  0  0  0  0
   -9.7834   -0.2072    0.7956 C   0  0  0  0  0  0  0  0  0  0  0  0
  -10.4265   -0.2358   -0.4439 C   0  0  0  0  0  0  0  0  0  0  0  0
  -11.9208   -0.2939   -0.5379 C   0  0  0  0  0  0  0  0  0  0  0  0
   -9.6542   -0.2160   -1.6057 C   0  0  0  0  0  0  0  0  0  0  0  0
   -8.2601   -0.1786   -1.5302 C   0  0  0  0  0  0  0  0  0  0  0  0
   -5.3500    0.5627   -1.1809 C   0  0  0  0  0  0  0  0  0  0  0  0
   -3.9519    0.5873   -1.1154 C   0  0  0  0  0  0  0  0  0  0  0  0
   -1.0273    1.0606   -0.5117 C   0  0  0  0  0  0  0  0  0  0  0  0
    0.3713    1.0477   -0.4950 C   0  0  0  0  0  0  0  0  0  0  0  0
    2.9501   -0.9564    0.5241 H   0  0  0  0  0  0  0  0  0  0  0  0
    2.9491    0.8128    0.5826 H   0  0  0  0  0  0  0  0  0  0  0  0
    2.9281   -0.0369   -0.9885 H   0  0  0  0  0  0  0  0  0  0  0  0
    0.8443   -1.9592    1.0139 H   0  0  0  0  0  0  0  0  0  0  0  0
   -1.5854   -1.9586    0.9442 H   0  0  0  0  0  0  0  0  0  0  0  0
   -3.5504   -1.1506    1.7692 H   0  0  0  0  0  0  0  0  0  0  0  0
   -5.9553   -1.2753    1.6038 H   0  0  0  0  0  0  0  0  0  0  0  0
   -7.9295   -0.1125    1.8516 H   0  0  0  0  0  0  0  0  0  0  0  0
  -10.3583   -0.2227    1.7187 H   0  0  0  0  0  0  0  0  0  0  0  0
  -12.3867   -0.2915    0.4536 H   0  0  0  0  0  0  0  0  0  0  0  0
  -12.2267   -1.2104   -1.0526 H   0  0  0  0  0  0  0  0  0  0  0  0
  -12.2966    0.5741   -1.0892 H   0  0  0  0  0  0  0  0  0  0  0  0
  -10.1324   -0.2334   -2.5831 H   0  0  0  0  0  0  0  0  0  0  0  0
   -7.6983   -0.1886   -2.4613 H   0  0  0  0  0  0  0  0  0  0  0  0
   -5.8283    1.0796   -2.0099 H   0  0  0  0  0  0  0  0  0  0  0  0
   -3.4162    1.0882   -1.9183 H   0  0  0  0  0  0  0  0  0  0  0  0
   -1.5241    1.9338   -0.9297 H   0  0  0  0  0  0  0  0  0  0  0  0
    0.9141    1.8910   -0.9150 H   0  0  0  0  0  0  0  0  0  0  0  0
  1  2  1  0  0  0  0
  1 21  1  0  0  0  0
  1 22  1  0  0  0  0
  1 23  1  0  0  0  0
  2  3  1  0  0  0  0
  2 20  2  0  0  0  0
  3  4  2  0  0  0  0
  3 24  1  0  0  0  0
  4  5  1  0  0  0  0
  4 25  1  0  0  0  0
  5  6  1  0  0  0  0
  5 19  2  0  0  0  0
  6  7  1  0  0  0  0
  6 18  2  0  0  0  0
  7  8  2  0  0  0  0
  7 26  1  0  0  0  0
  8  9  1  0  0  0  0
  8 27  1  0  0  0  0
  9 10  1  0  0  0  0
  9 17  2  0  0  0  0
 10 11  1  0  0  0  0
 10 16  2  0  0  0  0
 11 12  2  0  0  0  0
 11 28  1  0  0  0  0
 12 13  1  0  0  0  0
 12 29  1  0  0  0  0
 13 14  1  0  0  0  0
 13 15  2  0  0  0  0
 14 30  1  0  0  0  0
 14 31  1  0  0  0  0
 14 32  1  0  0  0  0
 15 16  1  0  0  0  0
 15 33  1  0  0  0  0
 16 34  1  0  0  0  0
 17 18  1  0  0  0  0
 17 35  1  0  0  0  0
 18 36  1  0  0  0  0
 19 20  1  0  0  0  0
 19 37  1  0  0  0  0
 20 38  1  0  0  0  0
M  END
