21

C          1.10869        0.19831       -0.71057
C          2.21900        0.00720        0.01030
C          2.98470        1.12420        0.60640
C          4.01830        1.72880       -0.11190
C          4.73820        2.78700        0.45810
C          5.85030        3.43270       -0.32590
C          4.39260        3.21560        1.75880
C          5.10650        4.33170        2.43400
C          6.18379        4.13533        3.20302
N          3.37470        2.58410        2.40710
N          2.69670        1.57850        1.85420
H          0.58248       -0.65431       -1.12751
H          0.71288        1.19215       -0.89413
H          2.56776       -1.01082        0.16029
H          4.25940        1.37730       -1.10850
H          5.97530        2.96340       -1.32500
H          6.80870        3.32760        0.22470
H          5.62650        4.50940       -0.47850
H          4.75809        5.35180        2.31264
H          6.59203        3.14423        3.37250
H          6.67113        4.98223        3.67559
21

C          2.57566       -1.27294        0.16197
C          2.21900        0.00720        0.01030
C          2.98470        1.12420        0.60640
C          4.01830        1.72880       -0.11190
C          4.73820        2.78700        0.45810
C          5.85030        3.43270       -0.32590
C          4.39260        3.21560        1.75880
C          5.10650        4.33170        2.43400
C          4.71142        5.60583        2.32907
N          3.37470        2.58410        2.40710
N          2.69670        1.57850        1.85420
H          1.98037       -2.05684       -0.29500
H          3.45276       -1.55566        0.73542
H          1.33067        0.22934       -0.57451
H          4.25940        1.37730       -1.10850
H          5.97530        2.96340       -1.32500
H          6.80870        3.32760        0.22470
H          5.62650        4.50940       -0.47850
H          5.98333        4.12840        3.03944
H          3.84393        5.88866        1.74159
H          5.26545        6.38651        2.84058
21

C          2.75267       -0.84017       -0.87634
C          2.21900        0.00720        0.01030
C          2.98470        1.12420        0.60640
C          4.01830        1.72880       -0.11190
C          4.73820        2.78700        0.45810
C          5.85030        3.43270       -0.32590
C          4.39260        3.21560        1.75880
C          5.10650        4.33170        2.43400
C          4.71142        5.60583        2.32907
N          3.37470        2.58410        2.40710
N          2.69670        1.57850        1.85420
H          2.14949       -1.64454       -1.28481
H          3.78331       -0.74736       -1.20381
H          1.18183       -0.13571        0.30071
H          4.25940        1.37730       -1.10850
H          5.97530        2.96340       -1.32500
H          6.80870        3.32760        0.22470
H          5.62650        4.50940       -0.47850
H          5.98333        4.12840        3.03944
H          3.84393        5.88866        1.74159
H          5.26545        6.38651        2.84058
21

C          2.02701       -0.11239       -1.30796
C          2.21900        0.00720        0.01030
C          2.98470        1.12420        0.60640
C          4.01830        1.72880       -0.11190
C          4.73820        2.78700        0.45810
C          5.85030        3.43270       -0.32590
C          4.39260        3.21560        1.75880
C          5.10650        4.33170        2.43400
C          4.71142        5.60583        2.32907
N          3.37470        2.58410        2.40710
N          2.69670        1.57850        1.85420
H          1.45800       -0.95076       -1.69663
H          2.42799        0.61189       -2.00989
H          1.79377       -0.74917        0.66419
H          4.25940        1.37730       -1.10850
H          5.97530        2.96340       -1.32500
H          6.80870        3.32760        0.22470
H          5.62650        4.50940       -0.47850
H          5.98333        4.12840        3.03944
H          3.84393        5.88866        1.74159
H          5.26545        6.38651        2.84058
21

C          2.57566       -1.27294        0.16197
C          2.21900        0.00720        0.01030
C          2.98470        1.12420        0.60640
C          4.01830        1.72880       -0.11190
C          4.73820        2.78700        0.45810
C          5.85030        3.43270       -0.32590
C          4.39260        3.21560        1.75880
C          5.10650        4.33170        2.43400
C          6.18379        4.13533        3.20302
N          3.37470        2.58410        2.40710
N          2.69670        1.57850        1.85420
H          1.98037       -2.05684       -0.29500
H          3.45276       -1.55566        0.73542
H          1.33067        0.22934       -0.57451
H          4.25940        1.37730       -1.10850
H          5.97530        2.96340       -1.32500
H          6.80870        3.32760        0.22470
H          5.62650        4.50940       -0.47850
H          4.75809        5.35180        2.31264
H          6.59203        3.14423        3.37250
H          6.67113        4.98223        3.67559
21

C          1.10869        0.19831       -0.71057
C          2.21900        0.00720        0.01030
C          2.98470        1.12420        0.60640
C          4.01830        1.72880       -0.11190
C          4.73820        2.78700        0.45810
C          5.85030        3.43270       -0.32590
C          4.39260        3.21560        1.75880
C          5.10650        4.33170        2.43400
C          4.71142        5.60583        2.32907
N          3.37470        2.58410        2.40710
N          2.69670        1.57850        1.85420
H          0.58248       -0.65431       -1.12751
H          0.71288        1.19215       -0.89413
H          2.56776       -1.01082        0.16029
H          4.25940        1.37730       -1.10850
H          5.97530        2.96340       -1.32500
H          6.80870        3.32760        0.22470
H          5.62650        4.50940       -0.47850
H          5.98333        4.12840        3.03944
H          3.84393        5.88866        1.74159
H          5.26545        6.38651        2.84058
21

C          0.93542       -0.22532        0.30582
C          2.21900        0.00720        0.01030
C          2.98470        1.12420        0.60640
C          4.01830        1.72880       -0.11190
C          4.73820        2.78700        0.45810
C          5.85030        3.43270       -0.32590
C          4.39260        3.21560        1.75880
C          5.10650        4.33170        2.43400
C          5.25258        4.39238        3.76271
N          3.37470        2.58410        2.40710
N          2.69670        1.57850        1.85420
H          0.41693       -1.05790       -0.15860
H          0.38931        0.40092        1.00414
H          2.71345       -0.65348       -0.69646
H          4.25940        1.37730       -1.10850
H          5.97530        2.96340       -1.32500
H          6.80870        3.32760        0.22470
H          5.62650        4.50940       -0.47850
H          5.53280        5.13806        1.84683
H          4.85410        3.62389        4.41717
H          5.78182        5.22786        4.20986
21

C          0.93542       -0.22532        0.30582
C          2.21900        0.00720        0.01030
C          2.98470        1.12420        0.60640
C          4.01830        1.72880       -0.11190
C          4.73820        2.78700        0.45810
C          5.85030        3.43270       -0.32590
C          4.39260        3.21560        1.75880
C          5.10650        4.33170        2.43400
C          4.50854        5.13547        3.32107
N          3.37470        2.58410        2.40710
N          2.69670        1.57850        1.85420
H          0.41693       -1.05790       -0.15860
H          0.38931        0.40092        1.00414
H          2.71345       -0.65348       -0.69646
H          4.25940        1.37730       -1.10850
H          5.97530        2.96340       -1.32500
H          6.80870        3.32760        0.22470
H          5.62650        4.50940       -0.47850
H          6.15195        4.51984        2.21411
H          3.46539        5.01074        3.59301
H          5.07148        5.93749        3.78789
21

C          1.10869        0.19831       -0.71057
C          2.21900        0.00720        0.01030
C          2.98470        1.12420        0.60640
C          4.01830        1.72880       -0.11190
C          4.73820        2.78700        0.45810
C          5.85030        3.43270       -0.32590
C          4.39260        3.21560        1.75880
C          5.10650        4.33170        2.43400
C          6.39104        4.61584        2.18962
N          3.37470        2.58410        2.40710
N          2.69670        1.57850        1.85420
H          0.58248       -0.65431       -1.12751
H          0.71288        1.19215       -0.89413
H          2.56776       -1.01082        0.16029
H          4.25940        1.37730       -1.10850
H          5.97530        2.96340       -1.32500
H          6.80870        3.32760        0.22470
H          5.62650        4.50940       -0.47850
H          4.58583        4.95192        3.15577
H          6.97873        4.04108        1.48114
H          6.86929        5.44093        2.70784
21

C          2.57566       -1.27294        0.16197
C          2.21900        0.00720        0.01030
C          2.98470        1.12420        0.60640
C          4.01830        1.72880       -0.11190
C          4.73820        2.78700        0.45810
C          5.85030        3.43270       -0.32590
C          4.39260        3.21560        1.75880
C          5.10650        4.33170        2.43400
C          5.66271        5.34324        1.75731
N          3.37470        2.58410        2.40710
N          2.69670        1.57850        1.85420
H          1.98037       -2.05684       -0.29500
H          3.45276       -1.55566        0.73542
H          1.33067        0.22934       -0.57451
H          4.25940        1.37730       -1.10850
H          5.97530        2.96340       -1.32500
H          6.80870        3.32760        0.22470
H          5.62650        4.50940       -0.47850
H          5.19191        4.34674        3.51530
H          5.61934        5.39866        0.67439
H          6.17395        6.13558        2.29479
