
 OpenBabel08122213053D

 23 23  0  0  0  0  0  0  0  0999 V2000
    1.1185    0.1276   -0.5596 C   0  0  0  0  0  0  0  0  0  0  0  0
    2.3141   -0.1218   -0.0070 C   0  0  0  0  0  0  0  0  0  0  0  0
    2.9955   -1.4241   -0.0258 C   0  0  0  0  0  0  0  0  0  0  0  0
    2.3077   -2.6366   -0.0197 C   0  0  0  0  0  0  0  0  0  0  0  0
    3.0035   -3.8515   -0.0191 C   0  0  0  0  0  0  0  0  0  0  0  0
    4.4093   -3.8965    0.0045 C   0  0  0  0  0  0  0  0  0  0  0  0
    5.1021   -5.1968   -0.0540 C   0  0  0  0  0  0  0  0  0  0  0  0
    4.6906   -6.3550    0.4770 C   0  0  0  0  0  0  0  0  0  0  0  0
    3.5351   -6.4534    1.1657 F   0  0  0  0  0  0  0  0  0  0  0  0
    5.4595   -7.4538    0.3169 F   0  0  0  0  0  0  0  0  0  0  0  0
    5.1141   -2.6745    0.0102 C   0  0  0  0  0  0  0  0  0  0  0  0
    6.6165   -2.5565    0.0325 C   0  0  0  0  0  0  0  0  0  0  0  0
    4.3942   -1.4579    0.0023 C   0  0  0  0  0  0  0  0  0  0  0  0
    0.6897    1.1222   -0.5107 H   0  0  0  0  0  0  0  0  0  0  0  0
    0.5457   -0.6312   -1.0828 H   0  0  0  0  0  0  0  0  0  0  0  0
    2.8481    0.6915    0.4771 H   0  0  0  0  0  0  0  0  0  0  0  0
    1.2210   -2.6611   -0.0141 H   0  0  0  0  0  0  0  0  0  0  0  0
    2.4169   -4.7671   -0.0405 H   0  0  0  0  0  0  0  0  0  0  0  0
    6.0434   -5.2185   -0.5917 H   0  0  0  0  0  0  0  0  0  0  0  0
    7.1347   -3.5166    0.0641 H   0  0  0  0  0  0  0  0  0  0  0  0
    6.9302   -1.9955    0.9197 H   0  0  0  0  0  0  0  0  0  0  0  0
    6.9592   -2.0253   -0.8617 H   0  0  0  0  0  0  0  0  0  0  0  0
    4.9482   -0.5203    0.0075 H   0  0  0  0  0  0  0  0  0  0  0  0
  1  2  2  0  0  0  0
  1 14  1  0  0  0  0
  1 15  1  0  0  0  0
  2  3  1  0  0  0  0
  2 16  1  0  0  0  0
  3  4  1  0  0  0  0
  3 13  2  0  0  0  0
  4  5  2  0  0  0  0
  4 17  1  0  0  0  0
  5  6  1  0  0  0  0
  5 18  1  0  0  0  0
  6  7  1  0  0  0  0
  6 11  2  0  0  0  0
  7  8  2  0  0  0  0
  7 19  1  0  0  0  0
  8  9  1  0  0  0  0
  8 10  1  0  0  0  0
 11 12  1  0  0  0  0
 11 13  1  0  0  0  0
 12 20  1  0  0  0  0
 12 21  1  0  0  0  0
 12 22  1  0  0  0  0
 13 23  1  0  0  0  0
M  END
