  20

 C          1.2878200000        1.0258400000       -0.2733400000
 C          2.3241000000        0.2247000000       -0.0016000000
 C          3.1098000000       -0.4210000000       -1.0585000000
 C          2.7473000000       -0.1784000000       -2.3953000000
 C          3.4733000000       -0.7492000000       -3.4421000000
 C          4.5637000000       -1.5600000000       -3.1538000000
 F          5.2617000000       -2.1009000000       -4.1616000000
 C          4.9268000000       -1.8173000000       -1.8359000000
 F          5.9786000000       -2.6156000000       -1.5906000000
 C          4.2045000000       -1.2620000000       -0.7719000000
 C          4.6026000000       -1.5839000000        0.6020000000
 C          4.4093800000       -0.7508000000        1.6281600000
 F          3.8155600000        0.4471800000        1.4473200000
 F          4.8078900000       -1.1211000000        2.8636800000
 H          0.7241400000        1.4881800000        0.5312400000
 H          0.9712700000        1.2373900000       -1.2907600000
 H          2.6229100000        0.0186200000        1.0225800000
 H          1.8962000000        0.4601000000       -2.6252000000
 H          3.1971000000       -0.5650000000       -4.4754000000
 H          5.0791500000       -2.5440900000        0.7622300000
