
 OpenBabel02012213493D

 21 21  0  0  0  0  0  0  0  0999 V2000
    2.8863    0.0179    0.0014 C   0  0  0  0  0  0  0  0  0  0  0  0
    1.3857   -0.0044   -0.0001 C   0  0  0  0  0  0  0  0  0  0  0  0
    0.6889   -1.2156   -0.0039 C   0  0  0  0  0  0  0  0  0  0  0  0
   -0.7047   -1.2239   -0.0049 C   0  0  0  0  0  0  0  0  0  0  0  0
   -1.4374   -0.0226   -0.0022 C   0  0  0  0  0  0  0  0  0  0  0  0
   -2.9414   -0.1171   -0.0031 C   0  0  0  0  0  0  0  0  0  0  0  0
   -0.7360    1.2193    0.0013 C   0  0  0  0  0  0  0  0  0  0  0  0
   -1.3915    2.5913    0.0041 C   0  0  0  0  0  0  0  0  0  0  0  0
   -2.7709    2.5563    0.0033 F   0  0  0  0  0  0  0  0  0  0  0  0
   -0.9848    3.2846    1.1301 F   0  0  0  0  0  0  0  0  0  0  0  0
   -0.9835    3.2896   -1.1183 F   0  0  0  0  0  0  0  0  0  0  0  0
    0.6728    1.2000    0.0023 C   0  0  0  0  0  0  0  0  0  0  0  0
    3.3101   -1.0090   -0.0011 H   0  0  0  0  0  0  0  0  0  0  0  0
    3.2506    0.5455    0.9080 H   0  0  0  0  0  0  0  0  0  0  0  0
    3.2526    0.5508   -0.9012 H   0  0  0  0  0  0  0  0  0  0  0  0
    1.2227   -2.1580   -0.0059 H   0  0  0  0  0  0  0  0  0  0  0  0
   -1.2137   -2.1801   -0.0077 H   0  0  0  0  0  0  0  0  0  0  0  0
   -3.2908   -1.1717   -0.0058 H   0  0  0  0  0  0  0  0  0  0  0  0
   -3.3511    0.3689   -0.9131 H   0  0  0  0  0  0  0  0  0  0  0  0
   -3.3517    0.3644    0.9091 H   0  0  0  0  0  0  0  0  0  0  0  0
    1.2227    2.1348    0.0052 H   0  0  0  0  0  0  0  0  0  0  0  0
  1  2  1  0  0  0  0
  1 13  1  0  0  0  0
  1 14  1  0  0  0  0
  1 15  1  0  0  0  0
  2  3  1  0  0  0  0
  2 12  2  0  0  0  0
  3  4  2  0  0  0  0
  3 16  1  0  0  0  0
  4  5  1  0  0  0  0
  4 17  1  0  0  0  0
  5  6  1  0  0  0  0
  5  7  2  0  0  0  0
  6 18  1  0  0  0  0
  6 19  1  0  0  0  0
  6 20  1  0  0  0  0
  7  8  1  0  0  0  0
  7 12  1  0  0  0  0
  8  9  1  0  0  0  0
  8 10  1  0  0  0  0
  8 11  1  0  0  0  0
 12 21  1  0  0  0  0
M  END
