
 OpenBabel02012213493D

 21 21  0  0  0  0  0  0  0  0999 V2000
    2.9030    0.0006    0.0041 C   0  0  0  0  0  0  0  0  0  0  0  0
    1.4020   -0.0123   -0.0014 C   0  0  0  0  0  0  0  0  0  0  0  0
    0.6998   -1.2172   -0.0058 C   0  0  0  0  0  0  0  0  0  0  0  0
   -0.6966   -1.2196   -0.0049 C   0  0  0  0  0  0  0  0  0  0  0  0
   -1.4240   -0.0190   -0.0025 C   0  0  0  0  0  0  0  0  0  0  0  0
   -2.9266   -0.0878   -0.0005 C   0  0  0  0  0  0  0  0  0  0  0  0
   -0.7316    1.2094   -0.0004 C   0  0  0  0  0  0  0  0  0  0  0  0
   -1.4182    2.5601    0.0025 C   0  0  0  0  0  0  0  0  0  0  0  0
   -2.7789    2.5262    0.0030 F   0  0  0  0  0  0  0  0  0  0  0  0
   -1.0750    3.3096    1.0904 F   0  0  0  0  0  0  0  0  0  0  0  0
   -1.0764    3.3133   -1.0829 F   0  0  0  0  0  0  0  0  0  0  0  0
    0.6826    1.1905    0.0004 C   0  0  0  0  0  0  0  0  0  0  0  0
    3.3137   -1.0142   -0.0035 H   0  0  0  0  0  0  0  0  0  0  0  0
    3.2744    0.5040    0.9023 H   0  0  0  0  0  0  0  0  0  0  0  0
    3.2796    0.5195   -0.8834 H   0  0  0  0  0  0  0  0  0  0  0  0
    1.2301   -2.1666   -0.0086 H   0  0  0  0  0  0  0  0  0  0  0  0
   -1.2149   -2.1773   -0.0068 H   0  0  0  0  0  0  0  0  0  0  0  0
   -3.2871   -1.1211    0.0007 H   0  0  0  0  0  0  0  0  0  0  0  0
   -3.3264    0.3961   -0.8972 H   0  0  0  0  0  0  0  0  0  0  0  0
   -3.3255    0.3970    0.8968 H   0  0  0  0  0  0  0  0  0  0  0  0
    1.2275    2.1356    0.0022 H   0  0  0  0  0  0  0  0  0  0  0  0
  1  2  1  0  0  0  0
  1 13  1  0  0  0  0
  1 14  1  0  0  0  0
  1 15  1  0  0  0  0
  2  3  1  0  0  0  0
  2 12  2  0  0  0  0
  3  4  2  0  0  0  0
  3 16  1  0  0  0  0
  4  5  1  0  0  0  0
  4 17  1  0  0  0  0
  5  6  1  0  0  0  0
  5  7  2  0  0  0  0
  6 18  1  0  0  0  0
  6 19  1  0  0  0  0
  6 20  1  0  0  0  0
  7  8  1  0  0  0  0
  7 12  1  0  0  0  0
  8  9  1  0  0  0  0
  8 10  1  0  0  0  0
  8 11  1  0  0  0  0
 12 21  1  0  0  0  0
M  END
