
 OpenBabel02032211243D

 24 24  0  0  0  0  0  0  0  0999 V2000
    1.0252   -0.2583   -0.1255 C   0  0  0  0  0  0  0  0  0  0  0  0
    2.3258    0.0493   -0.1664 C   0  0  0  0  0  0  0  0  0  0  0  0
    2.9121    0.9738    0.7315 C   0  0  0  0  0  0  0  0  0  0  0  0
    3.8793    1.7901    0.2204 N   0  0  0  0  0  0  0  0  0  0  0  0
    4.3536    2.6876    1.0823 N   0  0  0  0  0  0  0  0  0  0  0  0
    3.7246    2.4289    2.2304 C   0  0  0  0  0  0  0  0  0  0  0  0
    3.9549    3.1591    3.3755 N   0  0  0  0  0  0  0  0  0  0  0  0
    4.8153    4.1936    3.5874 C   0  0  0  0  0  0  0  0  0  0  0  0
    5.7651    4.6646    2.5193 C   0  0  0  0  0  0  0  0  0  0  0  0
    4.7957    4.7514    4.6910 O   0  0  0  0  0  0  0  0  0  0  0  0
    2.8110    1.3272    2.0750 C   0  0  0  0  0  0  0  0  0  0  0  0
    1.9664    0.6267    2.9993 C   0  0  0  0  0  0  0  0  0  0  0  0
    1.7175    0.8574    4.2941 C   0  0  0  0  0  0  0  0  0  0  0  0
    0.6025   -0.9526   -0.8458 H   0  0  0  0  0  0  0  0  0  0  0  0
    0.3382    0.1766    0.5939 H   0  0  0  0  0  0  0  0  0  0  0  0
    2.9402   -0.3894   -0.9516 H   0  0  0  0  0  0  0  0  0  0  0  0
    4.2436    1.8050   -0.7257 H   0  0  0  0  0  0  0  0  0  0  0  0
    3.3940    2.9436    4.1783 H   0  0  0  0  0  0  0  0  0  0  0  0
    6.2998    3.8300    2.0600 H   0  0  0  0  0  0  0  0  0  0  0  0
    6.5251    5.3069    2.9774 H   0  0  0  0  0  0  0  0  0  0  0  0
    5.2253    5.2492    1.7699 H   0  0  0  0  0  0  0  0  0  0  0  0
    1.4554   -0.2466    2.5971 H   0  0  0  0  0  0  0  0  0  0  0  0
    2.1375    1.6607    4.8796 H   0  0  0  0  0  0  0  0  0  0  0  0
    1.0406    0.1962    4.8282 H   0  0  0  0  0  0  0  0  0  0  0  0
  1  2  2  0  0  0  0
  1 14  1  0  0  0  0
  1 15  1  0  0  0  0
  2  3  1  0  0  0  0
  2 16  1  0  0  0  0
  3  4  1  0  0  0  0
  3 11  2  0  0  0  0
  4  5  1  0  0  0  0
  4 17  1  0  0  0  0
  5  6  2  0  0  0  0
  6  7  1  0  0  0  0
  6 11  1  0  0  0  0
  7  8  1  0  0  0  0
  7 18  1  0  0  0  0
  8  9  1  0  0  0  0
  8 10  2  0  0  0  0
  9 19  1  0  0  0  0
  9 20  1  0  0  0  0
  9 21  1  0  0  0  0
 11 12  1  0  0  0  0
 12 13  2  0  0  0  0
 12 22  1  0  0  0  0
 13 23  1  0  0  0  0
 13 24  1  0  0  0  0
M  END
