20

C          2.48566        0.86842       -1.07939
C          2.35130        0.05450       -0.02370
C          3.10910       -1.21200        0.17820
C          4.34120       -1.27380        0.85490
C          5.00470       -2.49390        1.01090
C          4.46140       -3.68690        0.50250
C          5.23810       -4.94530        0.71750
C          5.14246       -5.79434        1.75576
F          4.29474       -5.60639        2.79673
F          5.94006       -6.89441        1.77797
C          3.22750       -3.62090       -0.17560
C          2.56530       -2.40010       -0.33280
H          1.88578        1.77117       -1.13609
H          3.16960        0.67132       -1.89367
H          1.63248        0.34609        0.73708
H          4.80670       -0.39320        1.27020
H          5.95120       -2.50430        1.53810
H          5.96678       -5.20704       -0.04579
H          2.75290       -4.48920       -0.59710
H          1.61900       -2.38470       -0.86130
20

C          1.55217        0.31171       -1.06784
C          2.35130        0.05450       -0.02370
C          3.10910       -1.21200        0.17820
C          4.34120       -1.27380        0.85490
C          5.00470       -2.49390        1.01090
C          4.46140       -3.68690        0.50250
C          5.23810       -4.94530        0.71750
C          5.14246       -5.79434        1.75576
F          4.29474       -5.60639        2.79673
F          5.94006       -6.89441        1.77797
C          3.22750       -3.62090       -0.17560
C          2.56530       -2.40010       -0.33280
H          1.04065        1.26729       -1.12479
H          1.38406       -0.39335       -1.87052
H          2.44728        0.83230        0.72884
H          4.80670       -0.39320        1.27020
H          5.95120       -2.50430        1.53810
H          5.96678       -5.20704       -0.04579
H          2.75290       -4.48920       -0.59710
H          1.61900       -2.38470       -0.86130
20

C          2.48566        0.86842       -1.07939
C          2.35130        0.05450       -0.02370
C          3.10910       -1.21200        0.17820
C          4.34120       -1.27380        0.85490
C          5.00470       -2.49390        1.01090
C          4.46140       -3.68690        0.50250
C          5.23810       -4.94530        0.71750
C          4.74976       -6.19039        0.85635
F          3.42569       -6.47940        0.82649
F          5.61892       -7.21730        1.04823
C          3.22750       -3.62090       -0.17560
C          2.56530       -2.40010       -0.33280
H          1.88578        1.77117       -1.13609
H          3.16960        0.67132       -1.89367
H          1.63248        0.34609        0.73708
H          4.80670       -0.39320        1.27020
H          5.95120       -2.50430        1.53810
H          6.31968       -4.84936        0.77282
H          2.75290       -4.48920       -0.59710
H          1.61900       -2.38470       -0.86130
20

C          1.55217        0.31171       -1.06784
C          2.35130        0.05450       -0.02370
C          3.10910       -1.21200        0.17820
C          4.34120       -1.27380        0.85490
C          5.00470       -2.49390        1.01090
C          4.46140       -3.68690        0.50250
C          5.23810       -4.94530        0.71750
C          4.74976       -6.19039        0.85635
F          3.42569       -6.47940        0.82649
F          5.61892       -7.21730        1.04823
C          3.22750       -3.62090       -0.17560
C          2.56530       -2.40010       -0.33280
H          1.04065        1.26729       -1.12479
H          1.38406       -0.39335       -1.87052
H          2.44728        0.83230        0.72884
H          4.80670       -0.39320        1.27020
H          5.95120       -2.50430        1.53810
H          6.31968       -4.84936        0.77282
H          2.75290       -4.48920       -0.59710
H          1.61900       -2.38470       -0.86130
20

C          1.55217        0.31171       -1.06784
C          2.35130        0.05450       -0.02370
C          3.10910       -1.21200        0.17820
C          4.34120       -1.27380        0.85490
C          5.00470       -2.49390        1.01090
C          4.46140       -3.68690        0.50250
C          5.23810       -4.94530        0.71750
C          6.41688       -5.07693        1.35086
F          7.09087       -4.03454        1.89560
F          6.97534       -6.31224        1.44541
C          3.22750       -3.62090       -0.17560
C          2.56530       -2.40010       -0.33280
H          1.04065        1.26729       -1.12479
H          1.38406       -0.39335       -1.87052
H          2.44728        0.83230        0.72884
H          4.80670       -0.39320        1.27020
H          5.95120       -2.50430        1.53810
H          4.80910       -5.85985        0.31546
H          2.75290       -4.48920       -0.59710
H          1.61900       -2.38470       -0.86130
20

C          1.55217        0.31171       -1.06784
C          2.35130        0.05450       -0.02370
C          3.10910       -1.21200        0.17820
C          4.34120       -1.27380        0.85490
C          5.00470       -2.49390        1.01090
C          4.46140       -3.68690        0.50250
C          5.23810       -4.94530        0.71750
C          6.06353       -5.22845        1.74048
F          6.31763       -4.36510        2.75420
F          6.68887       -6.43479        1.76299
C          3.22750       -3.62090       -0.17560
C          2.56530       -2.40010       -0.33280
H          1.04065        1.26729       -1.12479
H          1.38406       -0.39335       -1.87052
H          2.44728        0.83230        0.72884
H          4.80670       -0.39320        1.27020
H          5.95120       -2.50430        1.53810
H          5.13111       -5.72124       -0.03653
H          2.75290       -4.48920       -0.59710
H          1.61900       -2.38470       -0.86130
20

C          2.48566        0.86842       -1.07939
C          2.35130        0.05450       -0.02370
C          3.10910       -1.21200        0.17820
C          4.34120       -1.27380        0.85490
C          5.00470       -2.49390        1.01090
C          4.46140       -3.68690        0.50250
C          5.23810       -4.94530        0.71750
C          6.06353       -5.22845        1.74048
F          6.31763       -4.36510        2.75420
F          6.68887       -6.43479        1.76299
C          3.22750       -3.62090       -0.17560
C          2.56530       -2.40010       -0.33280
H          1.88578        1.77117       -1.13609
H          3.16960        0.67132       -1.89367
H          1.63248        0.34609        0.73708
H          4.80670       -0.39320        1.27020
H          5.95120       -2.50430        1.53810
H          5.13111       -5.72124       -0.03653
H          2.75290       -4.48920       -0.59710
H          1.61900       -2.38470       -0.86130
20

C          2.48566        0.86842       -1.07939
C          2.35130        0.05450       -0.02370
C          3.10910       -1.21200        0.17820
C          4.34120       -1.27380        0.85490
C          5.00470       -2.49390        1.01090
C          4.46140       -3.68690        0.50250
C          5.23810       -4.94530        0.71750
C          6.41688       -5.07693        1.35086
F          7.09087       -4.03454        1.89560
F          6.97534       -6.31224        1.44541
C          3.22750       -3.62090       -0.17560
C          2.56530       -2.40010       -0.33280
H          1.88578        1.77117       -1.13609
H          3.16960        0.67132       -1.89367
H          1.63248        0.34609        0.73708
H          4.80670       -0.39320        1.27020
H          5.95120       -2.50430        1.53810
H          4.80910       -5.85985        0.31546
H          2.75290       -4.48920       -0.59710
H          1.61900       -2.38470       -0.86130
20

C          2.74525        1.26062        0.40651
C          2.35130        0.05450       -0.02370
C          3.10910       -1.21200        0.17820
C          4.34120       -1.27380        0.85490
C          5.00470       -2.49390        1.01090
C          4.46140       -3.68690        0.50250
C          5.23810       -4.94530        0.71750
C          4.74976       -6.19039        0.85635
F          3.42569       -6.47940        0.82649
F          5.61892       -7.21730        1.04823
C          3.22750       -3.62090       -0.17560
C          2.56530       -2.40010       -0.33280
H          2.12182        2.12679        0.20876
H          3.66740        1.42219        0.94799
H          1.40813        0.00495       -0.56080
H          4.80670       -0.39320        1.27020
H          5.95120       -2.50430        1.53810
H          6.31968       -4.84936        0.77282
H          2.75290       -4.48920       -0.59710
H          1.61900       -2.38470       -0.86130
20

C          2.90441        1.26991       -0.13259
C          2.35130        0.05450       -0.02370
C          3.10910       -1.21200        0.17820
C          4.34120       -1.27380        0.85490
C          5.00470       -2.49390        1.01090
C          4.46140       -3.68690        0.50250
C          5.23810       -4.94530        0.71750
C          4.74976       -6.19039        0.85635
F          3.42569       -6.47940        0.82649
F          5.61892       -7.21730        1.04823
C          3.22750       -3.62090       -0.17560
C          2.56530       -2.40010       -0.33280
H          2.26554        2.13497       -0.27940
H          3.97137        1.43966       -0.08328
H          1.26840       -0.00367       -0.09042
H          4.80670       -0.39320        1.27020
H          5.95120       -2.50430        1.53810
H          6.31968       -4.84936        0.77282
H          2.75290       -4.48920       -0.59710
H          1.61900       -2.38470       -0.86130
