18

C          0.89670       -0.00010        0.02780
C          2.39760       -0.03350        0.09260
C          3.10740       -1.25090        0.08360
F          2.43310       -2.42860        0.01610
C          4.51500       -1.24860        0.14370
C          5.30260       -2.52820        0.13290
C          5.20140       -0.02730        0.21370
C          4.49770        1.17830        0.22280
C          3.10330        1.17660        0.16210
H          0.45670       -1.01780       -0.01830
H          0.57630        0.55820       -0.87700
H          0.49650        0.51080        0.92880
H          4.64800       -3.42230        0.07440
H          5.90810       -2.60070        1.06070
H          5.98270       -2.53800       -0.74490
H          6.28340       -0.01010        0.26050
H          5.03490        2.11650        0.27710
H          2.57110        2.12010        0.16940
