
  xtb     02032211343D
 xtb: 6.4.1 (23d549d)
 47 49  0     0  0            999 V2000
    4.7179   -1.7102    0.7095 C   0  0  0  0  0  0  0  0  0  0  0  0
    3.6677   -2.4415    0.0923 O   0  0  0  0  0  0  0  0  0  0  0  0
    2.4325   -2.1650    0.5268 C   0  0  0  0  0  0  0  0  0  0  0  0
    1.4073   -2.9864   -0.1714 C   0  0  0  0  0  0  0  0  0  0  0  0
    0.1971   -2.4146   -0.5921 C   0  0  0  0  0  0  0  0  0  0  0  0
   -0.0114   -1.0326   -0.5216 N   0  0  0  0  0  0  0  0  0  0  0  0
    1.0273   -0.1617   -0.8414 C   0  0  0  0  0  0  0  0  0  0  0  0
    1.1868    1.0392   -0.1494 C   0  0  0  0  0  0  0  0  0  0  0  0
    2.2440    1.8722   -0.4650 C   0  0  0  0  0  0  0  0  0  0  0  0
    2.4547    3.1540    0.2882 C   0  0  0  0  0  0  0  0  0  0  0  0
    1.4566    3.4586    1.1255 F   0  0  0  0  0  0  0  0  0  0  0  0
    3.5800    3.1244    1.0290 F   0  0  0  0  0  0  0  0  0  0  0  0
    2.5907    4.2097   -0.5382 F   0  0  0  0  0  0  0  0  0  0  0  0
    3.1597    1.5373   -1.4565 C   0  0  0  0  0  0  0  0  0  0  0  0
    2.9936    0.3477   -2.1440 C   0  0  0  0  0  0  0  0  0  0  0  0
    1.9387   -0.4929   -1.8468 C   0  0  0  0  0  0  0  0  0  0  0  0
   -1.2479   -0.5438   -0.0881 C   0  0  0  0  0  0  0  0  0  0  0  0
   -1.9696   -1.2201    0.8954 C   0  0  0  0  0  0  0  0  0  0  0  0
   -3.1919   -0.7413    1.3112 C   0  0  0  0  0  0  0  0  0  0  0  0
   -3.7396    0.4237    0.7658 C   0  0  0  0  0  0  0  0  0  0  0  0
   -5.0322    0.8686    1.2542 C   0  0  0  0  0  0  0  0  0  0  0  0
   -5.7520    1.9083    0.8566 C   0  0  0  0  0  0  0  0  0  0  0  0
   -5.4617    2.7911   -0.0921 F   0  0  0  0  0  0  0  0  0  0  0  0
   -6.9358    2.2169    1.3843 F   0  0  0  0  0  0  0  0  0  0  0  0
   -3.0098    1.0958   -0.2182 C   0  0  0  0  0  0  0  0  0  0  0  0
   -1.7871    0.6192   -0.6391 C   0  0  0  0  0  0  0  0  0  0  0  0
   -0.7897   -3.2411   -1.1289 C   0  0  0  0  0  0  0  0  0  0  0  0
   -0.5745   -4.5988   -1.2580 C   0  0  0  0  0  0  0  0  0  0  0  0
    0.6361   -5.1566   -0.8746 C   0  0  0  0  0  0  0  0  0  0  0  0
    1.6210   -4.3500   -0.3360 C   0  0  0  0  0  0  0  0  0  0  0  0
    2.1961   -1.3689    1.4007 O   0  0  0  0  0  0  0  0  0  0  0  0
    5.6419   -2.0750    0.2690 H   0  0  0  0  0  0  0  0  0  0  0  0
    4.7123   -1.8749    1.7886 H   0  0  0  0  0  0  0  0  0  0  0  0
    4.5952   -0.6420    0.5173 H   0  0  0  0  0  0  0  0  0  0  0  0
    0.5045    1.2992    0.6442 H   0  0  0  0  0  0  0  0  0  0  0  0
    3.9813    2.1996   -1.6795 H   0  0  0  0  0  0  0  0  0  0  0  0
    3.6908    0.0748   -2.9209 H   0  0  0  0  0  0  0  0  0  0  0  0
    1.8164   -1.4174   -2.3917 H   0  0  0  0  0  0  0  0  0  0  0  0
   -1.5557   -2.1135    1.3379 H   0  0  0  0  0  0  0  0  0  0  0  0
   -3.7337   -1.2720    2.0800 H   0  0  0  0  0  0  0  0  0  0  0  0
   -5.4764    0.2813    2.0450 H   0  0  0  0  0  0  0  0  0  0  0  0
   -3.3979    1.9954   -0.6660 H   0  0  0  0  0  0  0  0  0  0  0  0
   -1.2419    1.1464   -1.4078 H   0  0  0  0  0  0  0  0  0  0  0  0
   -1.7223   -2.8020   -1.4507 H   0  0  0  0  0  0  0  0  0  0  0  0
   -1.3495   -5.2235   -1.6757 H   0  0  0  0  0  0  0  0  0  0  0  0
    0.8078   -6.2153   -0.9908 H   0  0  0  0  0  0  0  0  0  0  0  0
    2.5613   -4.7719   -0.0164 H   0  0  0  0  0  0  0  0  0  0  0  0
  1  2  1  0  0  0  0
  2  3  1  0  0  0  0
  3  4  1  0  0  0  0
  4  5  4  0  0  0  0
  5  6  1  0  0  0  0
  6  7  1  0  0  0  0
  7  8  4  0  0  0  0
  8  9  4  0  0  0  0
  9 10  1  0  0  0  0
 10 11  1  0  0  0  0
 10 12  1  0  0  0  0
 10 13  1  0  0  0  0
  9 14  4  0  0  0  0
 14 15  4  0  0  0  0
  7 16  4  0  0  0  0
 15 16  4  0  0  0  0
  6 17  1  0  0  0  0
 17 18  4  0  0  0  0
 18 19  4  0  0  0  0
 19 20  4  0  0  0  0
 20 21  1  0  0  0  0
 21 22  2  0  0  0  0
 22 23  1  0  0  0  0
 22 24  1  0  0  0  0
 20 25  4  0  0  0  0
 17 26  4  0  0  0  0
 25 26  4  0  0  0  0
  5 27  4  0  0  0  0
 27 28  4  0  0  0  0
 28 29  4  0  0  0  0
  4 30  4  0  0  0  0
 29 30  4  0  0  0  0
  3 31  2  0  0  0  0
  1 32  1  0  0  0  0
  1 33  1  0  0  0  0
  1 34  1  0  0  0  0
  8 35  1  0  0  0  0
 14 36  1  0  0  0  0
 15 37  1  0  0  0  0
 16 38  1  0  0  0  0
 18 39  1  0  0  0  0
 19 40  1  0  0  0  0
 21 41  1  0  0  0  0
 25 42  1  0  0  0  0
 26 43  1  0  0  0  0
 27 44  1  0  0  0  0
 28 45  1  0  0  0  0
 29 46  1  0  0  0  0
 30 47  1  0  0  0  0
M  END
