
 OpenBabel02032211213D

 21 21  0  0  0  0  0  0  0  0999 V2000
    2.6071    1.2512    0.0557 C   0  0  0  0  0  0  0  0  0  0  0  0
    2.2096   -0.0109   -0.1441 C   0  0  0  0  0  0  0  0  0  0  0  0
    2.9504   -0.9408   -1.0025 C   0  0  0  0  0  0  0  0  0  0  0  0
    3.9732   -1.7093   -0.4335 C   0  0  0  0  0  0  0  0  0  0  0  0
    4.6889   -2.6227   -1.2118 C   0  0  0  0  0  0  0  0  0  0  0  0
    5.7568   -3.4851   -0.6771 C   0  0  0  0  0  0  0  0  0  0  0  0
    6.1881   -3.5300    0.5920 C   0  0  0  0  0  0  0  0  0  0  0  0
    4.3294   -2.6927   -2.5615 C   0  0  0  0  0  0  0  0  0  0  0  0
    4.9839   -3.5510   -3.3630 F   0  0  0  0  0  0  0  0  0  0  0  0
    3.3560   -1.9583   -3.1501 N   0  0  0  0  0  0  0  0  0  0  0  0
    2.6819   -1.0982   -2.3691 C   0  0  0  0  0  0  0  0  0  0  0  0
    1.6389   -0.4142   -2.9952 N   0  0  0  0  0  0  0  0  0  0  0  0
    2.0424    1.9091    0.7080 H   0  0  0  0  0  0  0  0  0  0  0  0
    3.4977    1.6586   -0.4166 H   0  0  0  0  0  0  0  0  0  0  0  0
    1.3175   -0.4048    0.3345 H   0  0  0  0  0  0  0  0  0  0  0  0
    4.1884   -1.5895    0.6240 H   0  0  0  0  0  0  0  0  0  0  0  0
    6.2274   -4.1536   -1.3984 H   0  0  0  0  0  0  0  0  0  0  0  0
    5.7848   -2.9115    1.3852 H   0  0  0  0  0  0  0  0  0  0  0  0
    6.9816   -4.2166    0.8724 H   0  0  0  0  0  0  0  0  0  0  0  0
    1.6925   -0.6154   -3.9904 H   0  0  0  0  0  0  0  0  0  0  0  0
    1.6609    0.5777   -2.7895 H   0  0  0  0  0  0  0  0  0  0  0  0
  1  2  2  0  0  0  0
  1 13  1  0  0  0  0
  1 14  1  0  0  0  0
  2  3  1  0  0  0  0
  2 15  1  0  0  0  0
  3  4  1  0  0  0  0
  3 11  2  0  0  0  0
  4  5  2  0  0  0  0
  4 16  1  0  0  0  0
  5  6  1  0  0  0  0
  5  8  1  0  0  0  0
  6  7  2  0  0  0  0
  6 17  1  0  0  0  0
  7 18  1  0  0  0  0
  7 19  1  0  0  0  0
  8  9  1  0  0  0  0
  8 10  2  0  0  0  0
 10 11  1  0  0  0  0
 11 12  1  0  0  0  0
 12 20  1  0  0  0  0
 12 21  1  0  0  0  0
M  END
