 xtb: 6.5.0 (unknown)
          08122213093D

 24  0  0     0  0            999 V2000
   -2.1178   -2.2617   -0.4128 C   0  0  0  0  0  0  0  0  0  0  0  0
   -1.1823   -2.0023    0.4884 C   0  0  0  0  0  0  0  0  0  0  0  0
   -0.0386   -1.1113    0.2794 C   0  0  0  0  0  0  0  0  0  0  0  0
    1.2165   -1.5453    0.6945 C   0  0  0  0  0  0  0  0  0  0  0  0
    2.3684   -0.8234    0.4450 C   0  0  0  0  0  0  0  0  0  0  0  0
    2.2858    0.3815   -0.2451 C   0  0  0  0  0  0  0  0  0  0  0  0
    3.3414    1.1758   -0.5691 O   0  0  0  0  0  0  0  0  0  0  0  0
    4.6324    0.7665   -0.1866 C   0  0  0  0  0  0  0  0  0  0  0  0
    1.0331    0.8451   -0.6406 C   0  0  0  0  0  0  0  0  0  0  0  0
   -0.1246    0.1301   -0.3708 C   0  0  0  0  0  0  0  0  0  0  0  0
   -1.3975    0.7559   -0.7457 C   0  0  0  0  0  0  0  0  0  0  0  0
   -2.4552    0.8553    0.0384 C   0  0  0  0  0  0  0  0  0  0  0  0
   -2.5792    0.3851    1.2732 F   0  0  0  0  0  0  0  0  0  0  0  0
   -3.5841    1.4721   -0.3097 F   0  0  0  0  0  0  0  0  0  0  0  0
   -2.9139   -2.9585   -0.2149 H   0  0  0  0  0  0  0  0  0  0  0  0
   -2.1208   -1.7946   -1.3840 H   0  0  0  0  0  0  0  0  0  0  0  0
   -1.1915   -2.5226    1.4377 H   0  0  0  0  0  0  0  0  0  0  0  0
    1.2940   -2.4907    1.2117 H   0  0  0  0  0  0  0  0  0  0  0  0
    3.3158   -1.2103    0.7850 H   0  0  0  0  0  0  0  0  0  0  0  0
    5.3060    1.5415   -0.5487 H   0  0  0  0  0  0  0  0  0  0  0  0
    4.9031   -0.1903   -0.6445 H   0  0  0  0  0  0  0  0  0  0  0  0
    4.7234    0.6885    0.9015 H   0  0  0  0  0  0  0  0  0  0  0  0
    0.9804    1.7967   -1.1465 H   0  0  0  0  0  0  0  0  0  0  0  0
   -1.4525    1.2492   -1.7044 H   0  0  0  0  0  0  0  0  0  0  0  0
M  END
