
 OpenBabel02032211293D

 24 24  0  0  0  0  0  0  0  0999 V2000
    1.1474   -0.9706   -0.2031 C   0  0  0  0  0  0  0  0  0  0  0  0
    2.2050   -0.1933    0.0728 C   0  0  0  0  0  0  0  0  0  0  0  0
    2.9485   -0.2069    1.2941 C   0  0  0  0  0  0  0  0  0  0  0  0
    2.7098   -1.0314    2.4268 C   0  0  0  0  0  0  0  0  0  0  0  0
    3.6507   -0.7315    3.3909 C   0  0  0  0  0  0  0  0  0  0  0  0
    3.8486   -1.2717    4.7099 C   0  0  0  0  0  0  0  0  0  0  0  0
    4.7293   -0.9204    5.4826 O   0  0  0  0  0  0  0  0  0  0  0  0
    2.9128   -2.2284    4.9618 O   0  0  0  0  0  0  0  0  0  0  0  0
    3.0253   -2.8341    6.2467 C   0  0  0  0  0  0  0  0  0  0  0  0
    4.4487    0.2566    2.8628 N   0  0  0  0  0  0  0  0  0  0  0  0
    4.0550    0.5817    1.5821 C   0  0  0  0  0  0  0  0  0  0  0  0
    4.7473    1.6013    0.8780 C   0  0  0  0  0  0  0  0  0  0  0  0
    6.0463    1.8754    1.0648 C   0  0  0  0  0  0  0  0  0  0  0  0
    0.6404   -0.8980   -1.1589 H   0  0  0  0  0  0  0  0  0  0  0  0
    0.7585   -1.6966    0.5039 H   0  0  0  0  0  0  0  0  0  0  0  0
    2.5249    0.5021   -0.7004 H   0  0  0  0  0  0  0  0  0  0  0  0
    1.9263   -1.7697    2.5400 H   0  0  0  0  0  0  0  0  0  0  0  0
    2.2315   -3.5807    6.3365 H   0  0  0  0  0  0  0  0  0  0  0  0
    2.8900   -2.0879    7.0357 H   0  0  0  0  0  0  0  0  0  0  0  0
    3.9901   -3.3404    6.3490 H   0  0  0  0  0  0  0  0  0  0  0  0
    5.2100    0.6879    3.3701 H   0  0  0  0  0  0  0  0  0  0  0  0
    4.1973    2.1671    0.1279 H   0  0  0  0  0  0  0  0  0  0  0  0
    6.6795    1.3297    1.7567 H   0  0  0  0  0  0  0  0  0  0  0  0
    6.5241    2.6619    0.4899 H   0  0  0  0  0  0  0  0  0  0  0  0
  1  2  2  0  0  0  0
  1 14  1  0  0  0  0
  1 15  1  0  0  0  0
  2  3  1  0  0  0  0
  2 16  1  0  0  0  0
  3  4  1  0  0  0  0
  3 11  2  0  0  0  0
  4  5  2  0  0  0  0
  4 17  1  0  0  0  0
  5  6  1  0  0  0  0
  5 10  1  0  0  0  0
  6  7  2  0  0  0  0
  6  8  1  0  0  0  0
  8  9  1  0  0  0  0
  9 18  1  0  0  0  0
  9 19  1  0  0  0  0
  9 20  1  0  0  0  0
 10 11  1  0  0  0  0
 10 21  1  0  0  0  0
 11 12  1  0  0  0  0
 12 13  2  0  0  0  0
 12 22  1  0  0  0  0
 13 23  1  0  0  0  0
 13 24  1  0  0  0  0
M  END
