
  xtb     02032211353D
 xtb: 6.4.1 (23d549d)
 17 17  0     0  0            999 V2000
    2.9137    1.1694   -0.0022 C   0  0  0  0  0  0  0  0  0  0  0  0
    1.5865    1.2068    0.0032 C   0  0  0  0  0  0  0  0  0  0  0  0
    0.7205    0.0479    0.0009 C   0  0  0  0  0  0  0  0  0  0  0  0
    1.0796   -1.2740    0.0012 C   0  0  0  0  0  0  0  0  0  0  0  0
    0.0000   -2.0700    0.0000 O   0  0  0  0  0  0  0  0  0  0  0  0
   -1.0795   -1.2740   -0.0013 C   0  0  0  0  0  0  0  0  0  0  0  0
   -0.7205    0.0479   -0.0008 C   0  0  0  0  0  0  0  0  0  0  0  0
   -1.5866    1.2068   -0.0030 C   0  0  0  0  0  0  0  0  0  0  0  0
   -2.9137    1.1694    0.0018 C   0  0  0  0  0  0  0  0  0  0  0  0
    3.5007    2.0714    0.0005 H   0  0  0  0  0  0  0  0  0  0  0  0
    3.4604    0.2424   -0.0094 H   0  0  0  0  0  0  0  0  0  0  0  0
    1.0839    2.1646    0.0101 H   0  0  0  0  0  0  0  0  0  0  0  0
    2.0374   -1.7544    0.0027 H   0  0  0  0  0  0  0  0  0  0  0  0
   -2.0374   -1.7545   -0.0028 H   0  0  0  0  0  0  0  0  0  0  0  0
   -1.0840    2.1646   -0.0093 H   0  0  0  0  0  0  0  0  0  0  0  0
   -3.4604    0.2425    0.0086 H   0  0  0  0  0  0  0  0  0  0  0  0
   -3.5007    2.0714   -0.0005 H   0  0  0  0  0  0  0  0  0  0  0  0
  1  2  2  0  0  0  0
  2  3  1  0  0  0  0
  3  4  2  0  0  0  0
  4  5  1  0  0  0  0
  5  6  1  0  0  0  0
  3  7  1  0  0  0  0
  6  7  2  0  0  0  0
  7  8  1  0  0  0  0
  8  9  2  0  0  0  0
  1 10  1  0  0  0  0
  1 11  1  0  0  0  0
  2 12  1  0  0  0  0
  4 13  1  0  0  0  0
  6 14  1  0  0  0  0
  8 15  1  0  0  0  0
  9 16  1  0  0  0  0
  9 17  1  0  0  0  0
M  END
