 xtb: 6.5.0 (unknown)
          08112218563D

 27  0  0     0  0            999 V2000
   -3.3081   -1.1831    1.5012 C   0  0  0  0  0  0  0  0  0  0  0  0
   -2.5854   -1.2553    0.3952 C   0  0  0  0  0  0  0  0  0  0  0  0
   -1.5285   -0.2725    0.0742 C   0  0  0  0  0  0  0  0  0  0  0  0
   -1.9709    1.0371   -0.1023 C   0  0  0  0  0  0  0  0  0  0  0  0
   -1.0917    2.0573   -0.4060 C   0  0  0  0  0  0  0  0  0  0  0  0
   -1.6854    3.6624   -0.6530 Cl  0  0  0  0  0  0  0  0  0  0  0  0
    0.2616    1.7989   -0.5086 C   0  0  0  0  0  0  0  0  0  0  0  0
    0.7349    0.5113   -0.2967 C   0  0  0  0  0  0  0  0  0  0  0  0
    2.1779    0.2901   -0.3905 C   0  0  0  0  0  0  0  0  0  0  0  0
    2.9166   -0.4656    0.4044 C   0  0  0  0  0  0  0  0  0  0  0  0
    2.5389   -1.1370    1.4785 F   0  0  0  0  0  0  0  0  0  0  0  0
    4.2332   -0.6094    0.2469 F   0  0  0  0  0  0  0  0  0  0  0  0
   -0.1570   -0.5513   -0.0314 C   0  0  0  0  0  0  0  0  0  0  0  0
    0.4551   -1.7488    0.1362 O   0  0  0  0  0  0  0  0  0  0  0  0
   -0.2269   -2.9804    0.0224 C   0  0  0  0  0  0  0  0  0  0  0  0
   -0.5624   -3.3159   -1.4275 C   0  0  0  0  0  0  0  0  0  0  0  0
   -4.1095   -1.8734    1.7021 H   0  0  0  0  0  0  0  0  0  0  0  0
   -3.1083   -0.4418    2.2567 H   0  0  0  0  0  0  0  0  0  0  0  0
   -2.8134   -2.0017   -0.3551 H   0  0  0  0  0  0  0  0  0  0  0  0
   -3.0261    1.2429   -0.0114 H   0  0  0  0  0  0  0  0  0  0  0  0
    0.9544    2.5942   -0.7331 H   0  0  0  0  0  0  0  0  0  0  0  0
    2.7062    0.8236   -1.1668 H   0  0  0  0  0  0  0  0  0  0  0  0
   -1.1224   -2.9902    0.6520 H   0  0  0  0  0  0  0  0  0  0  0  0
    0.4846   -3.7102    0.4188 H   0  0  0  0  0  0  0  0  0  0  0  0
   -1.1906   -2.5447   -1.8683 H   0  0  0  0  0  0  0  0  0  0  0  0
   -1.0828   -4.2684   -1.4748 H   0  0  0  0  0  0  0  0  0  0  0  0
    0.3512   -3.3836   -2.0129 H   0  0  0  0  0  0  0  0  0  0  0  0
M  END
