
  xtb     02032211353D
 xtb: 6.4.1 (23d549d)
 23 23  0     0  0            999 V2000
    4.0684    1.3333    0.5294 C   0  0  0  0  0  0  0  0  0  0  0  0
    3.6812    0.0882    0.2764 C   0  0  0  0  0  0  0  0  0  0  0  0
    2.3125   -0.3717    0.0860 C   0  0  0  0  0  0  0  0  0  0  0  0
    2.0712   -1.7270   -0.1599 C   0  0  0  0  0  0  0  0  0  0  0  0
    0.7946   -2.2124   -0.3505 C   0  0  0  0  0  0  0  0  0  0  0  0
   -0.3116   -1.3593   -0.3023 C   0  0  0  0  0  0  0  0  0  0  0  0
   -1.6803   -1.8097   -0.5105 C   0  0  0  0  0  0  0  0  0  0  0  0
   -2.1117   -3.0495   -0.3096 C   0  0  0  0  0  0  0  0  0  0  0  0
   -0.0558   -0.0116   -0.0591 C   0  0  0  0  0  0  0  0  0  0  0  0
   -1.4775    1.0523    0.0323 S   0  0  0  0  0  0  0  0  0  0  0  0
   -2.0311    1.3294   -1.2469 O   0  0  0  0  0  0  0  0  0  0  0  0
   -2.3238    0.7181    1.1223 O   0  0  0  0  0  0  0  0  0  0  0  0
   -0.7219    2.4508    0.4836 F   0  0  0  0  0  0  0  0  0  0  0  0
    1.2086    0.4858    0.1343 C   0  0  0  0  0  0  0  0  0  0  0  0
    5.1091    1.5766    0.6559 H   0  0  0  0  0  0  0  0  0  0  0  0
    3.3783    2.1539    0.6215 H   0  0  0  0  0  0  0  0  0  0  0  0
    4.4298   -0.6903    0.1984 H   0  0  0  0  0  0  0  0  0  0  0  0
    2.9086   -2.4085   -0.2058 H   0  0  0  0  0  0  0  0  0  0  0  0
    0.6458   -3.2604   -0.5580 H   0  0  0  0  0  0  0  0  0  0  0  0
   -2.3666   -1.0403   -0.8360 H   0  0  0  0  0  0  0  0  0  0  0  0
   -1.4675   -3.8344    0.0505 H   0  0  0  0  0  0  0  0  0  0  0  0
   -3.1393   -3.3175   -0.4798 H   0  0  0  0  0  0  0  0  0  0  0  0
    1.3402    1.5372    0.3221 H   0  0  0  0  0  0  0  0  0  0  0  0
  1  2  2  0  0  0  0
  2  3  1  0  0  0  0
  3  4  4  0  0  0  0
  4  5  4  0  0  0  0
  5  6  4  0  0  0  0
  6  7  1  0  0  0  0
  7  8  2  0  0  0  0
  6  9  4  0  0  0  0
  9 10  1  0  0  0  0
 10 11  2  0  0  0  0
 10 12  2  0  0  0  0
 10 13  1  0  0  0  0
  3 14  4  0  0  0  0
  9 14  4  0  0  0  0
  1 15  1  0  0  0  0
  1 16  1  0  0  0  0
  2 17  1  0  0  0  0
  4 18  1  0  0  0  0
  5 19  1  0  0  0  0
  7 20  1  0  0  0  0
  8 21  1  0  0  0  0
  8 22  1  0  0  0  0
 14 23  1  0  0  0  0
M  END
