21

C          3.73150       -0.32970        0.01350
C          2.24610       -0.18890        0.01170
C          1.32970       -1.23560        0.00950
O          1.62160        0.97600        0.01340
C          0.33290        0.72910        0.01280
C          0.10160       -0.62040        0.01070
C         -1.18690       -1.14920        0.01110
C         -2.27220       -0.24360        0.01420
C         -3.68540       -0.74490        0.01650
C         -2.02640        1.15300        0.01590
C         -0.71020        1.65000        0.01510
H          4.02370       -1.40110        0.01230
H          4.14670        0.15730        0.92010
H          4.15020        0.16080       -0.88950
H          1.53660       -2.29800        0.00800
H         -1.34240       -2.22100        0.00950
H         -3.72380       -1.85500        0.01480
H         -4.21470       -0.37270       -0.88580
H         -4.20960       -0.37600        0.92320
H         -2.85470        1.85060        0.01830
H         -0.51510        2.71440        0.01690
