
  xtb     02012213463D
 xtb: 6.4.1 (23d549d)
 21 22  0     0  0            999 V2000
    3.7525   -0.2870    0.0124 c   0  0  0  0  0  0  0  0  0  0  0  0
    2.2670   -0.2771    0.0124 c   0  0  0  0  0  0  0  0  0  0  0  0
    1.3680   -1.2933    0.0111 c   0  0  0  0  0  0  0  0  0  0  0  0
    1.6505    0.9384    0.0143 o   0  0  0  0  0  0  0  0  0  0  0  0
    0.3168    0.6971    0.0143 c   0  0  0  0  0  0  0  0  0  0  0  0
    0.0733   -0.6892    0.0124 c   0  0  0  0  0  0  0  0  0  0  0  0
   -1.2369   -1.1603    0.0126 c   0  0  0  0  0  0  0  0  0  0  0  0
   -2.2746   -0.2485    0.0146 c   0  0  0  0  0  0  0  0  0  0  0  0
   -3.7032   -0.7067    0.0154 c   0  0  0  0  0  0  0  0  0  0  0  0
   -2.0017    1.1263    0.0163 c   0  0  0  0  0  0  0  0  0  0  0  0
   -0.7139    1.6216    0.0162 c   0  0  0  0  0  0  0  0  0  0  0  0
    4.1155   -1.3100    0.0105 h   0  0  0  0  0  0  0  0  0  0  0  0
    4.1328    0.2281    0.8937 h   0  0  0  0  0  0  0  0  0  0  0  0
    4.1330    0.2314   -0.8669 h   0  0  0  0  0  0  0  0  0  0  0  0
    1.5887   -2.3413    0.0095 h   0  0  0  0  0  0  0  0  0  0  0  0
   -1.4334   -2.2223    0.0112 h   0  0  0  0  0  0  0  0  0  0  0  0
   -3.7644   -1.7918    0.0130 h   0  0  0  0  0  0  0  0  0  0  0  0
   -4.2242   -0.3275   -0.8630 h   0  0  0  0  0  0  0  0  0  0  0  0
   -4.2218   -0.3315    0.8969 h   0  0  0  0  0  0  0  0  0  0  0  0
   -2.8318    1.8175    0.0178 h   0  0  0  0  0  0  0  0  0  0  0  0
   -0.5128    2.6811    0.0175 h   0  0  0  0  0  0  0  0  0  0  0  0
  1  2  1  0  0  0  0
  2  3  2  0  0  0  0
  2  4  1  0  0  0  0
  4  5  1  0  0  0  0
  3  6  1  0  0  0  0
  5  6  4  0  0  0  0
  6  7  4  0  0  0  0
  7  8  4  0  0  0  0
  8  9  1  0  0  0  0
  8 10  4  0  0  0  0
  5 11  4  0  0  0  0
 10 11  4  0  0  0  0
  1 12  1  0  0  0  0
  1 13  1  0  0  0  0
  1 14  1  0  0  0  0
  3 15  1  0  0  0  0
  7 16  1  0  0  0  0
  9 17  1  0  0  0  0
  9 18  1  0  0  0  0
  9 19  1  0  0  0  0
 10 20  1  0  0  0  0
 11 21  1  0  0  0  0
M  END
