
  xtb     02032211353D
 xtb: 6.4.1 (23d549d)
 25 25  0     0  0            999 V2000
   -3.5275   -2.6557   -0.0131 C   0  0  0  0  0  0  0  0  0  0  0  0
   -2.2047   -2.5387    0.0033 C   0  0  0  0  0  0  0  0  0  0  0  0
   -1.4374   -1.3019   -0.0230 C   0  0  0  0  0  0  0  0  0  0  0  0
   -2.0229   -0.0364   -0.0841 C   0  0  0  0  0  0  0  0  0  0  0  0
   -1.2767    1.1283   -0.1107 C   0  0  0  0  0  0  0  0  0  0  0  0
   -1.9438    2.4276   -0.2242 C   0  0  0  0  0  0  0  0  0  0  0  0
   -3.1024    2.7330    0.3432 C   0  0  0  0  0  0  0  0  0  0  0  0
    0.1352    1.0579   -0.0613 C   0  0  0  0  0  0  0  0  0  0  0  0
    0.8888    2.1945   -0.0903 N   0  0  0  0  0  0  0  0  0  0  0  0
    0.7239   -0.2168   -0.0155 C   0  0  0  0  0  0  0  0  0  0  0  0
    2.2155   -0.3340    0.0266 C   0  0  0  0  0  0  0  0  0  0  0  0
    2.7581    0.2859    1.1054 F   0  0  0  0  0  0  0  0  0  0  0  0
    2.6551   -1.5953    0.0738 F   0  0  0  0  0  0  0  0  0  0  0  0
    2.8227    0.2326   -1.0400 F   0  0  0  0  0  0  0  0  0  0  0  0
   -0.0478   -1.3681    0.0028 C   0  0  0  0  0  0  0  0  0  0  0  0
   -4.0018   -3.6215    0.0103 H   0  0  0  0  0  0  0  0  0  0  0  0
   -4.1898   -1.8082   -0.0513 H   0  0  0  0  0  0  0  0  0  0  0  0
   -1.6008   -3.4368    0.0420 H   0  0  0  0  0  0  0  0  0  0  0  0
   -3.0963    0.0491   -0.1378 H   0  0  0  0  0  0  0  0  0  0  0  0
   -1.4409    3.1649   -0.8382 H   0  0  0  0  0  0  0  0  0  0  0  0
   -3.6274    2.0383    0.9771 H   0  0  0  0  0  0  0  0  0  0  0  0
   -3.5624    3.6965    0.2066 H   0  0  0  0  0  0  0  0  0  0  0  0
    0.4356    3.0637    0.1278 H   0  0  0  0  0  0  0  0  0  0  0  0
    1.8709    2.1490    0.1139 H   0  0  0  0  0  0  0  0  0  0  0  0
    0.4426   -2.3292    0.0394 H   0  0  0  0  0  0  0  0  0  0  0  0
  1  2  2  0  0  0  0
  2  3  1  0  0  0  0
  3  4  4  0  0  0  0
  4  5  4  0  0  0  0
  5  6  1  0  0  0  0
  6  7  2  0  0  0  0
  5  8  4  0  0  0  0
  8  9  4  0  0  0  0
  8 10  4  0  0  0  0
 10 11  1  0  0  0  0
 11 12  1  0  0  0  0
 11 13  1  0  0  0  0
 11 14  1  0  0  0  0
  3 15  4  0  0  0  0
 10 15  4  0  0  0  0
  1 16  1  0  0  0  0
  1 17  1  0  0  0  0
  2 18  1  0  0  0  0
  4 19  1  0  0  0  0
  6 20  1  0  0  0  0
  7 21  1  0  0  0  0
  7 22  1  0  0  0  0
  9 23  1  0  0  0  0
  9 24  1  0  0  0  0
 15 25  1  0  0  0  0
M  END
