
  xtb     02032211353D
 xtb: 6.4.1 (23d549d)
 20 20  0     0  0            999 V2000
   -3.8982   -0.2733   -0.0038 C   0  0  0  0  0  0  0  0  0  0  0  0
   -2.7123   -0.8695    0.0173 C   0  0  0  0  0  0  0  0  0  0  0  0
   -1.4182   -0.2068   -0.0164 C   0  0  0  0  0  0  0  0  0  0  0  0
   -1.2247    1.1667   -0.1806 C   0  0  0  0  0  0  0  0  0  0  0  0
   -0.0266    1.7156   -0.1060 N   0  0  0  0  0  0  0  0  0  0  0  0
    1.0293    0.9202    0.0639 C   0  0  0  0  0  0  0  0  0  0  0  0
    2.2367    1.5423    0.1752 N   0  0  0  0  0  0  0  0  0  0  0  0
    0.8652   -0.4907    0.0971 C   0  0  0  0  0  0  0  0  0  0  0  0
    1.9569   -1.4553    0.1570 C   0  0  0  0  0  0  0  0  0  0  0  0
    3.1759   -1.2972   -0.3456 C   0  0  0  0  0  0  0  0  0  0  0  0
   -0.3531   -1.0050    0.1036 N   0  0  0  0  0  0  0  0  0  0  0  0
   -4.8107   -0.8436    0.0246 H   0  0  0  0  0  0  0  0  0  0  0  0
   -4.0101    0.7967   -0.0472 H   0  0  0  0  0  0  0  0  0  0  0  0
   -2.6406   -1.9475    0.0715 H   0  0  0  0  0  0  0  0  0  0  0  0
   -2.0403    1.8519   -0.3615 H   0  0  0  0  0  0  0  0  0  0  0  0
    2.1844    2.5371    0.3302 H   0  0  0  0  0  0  0  0  0  0  0  0
    2.9788    1.0448    0.6389 H   0  0  0  0  0  0  0  0  0  0  0  0
    1.6745   -2.3935    0.6161 H   0  0  0  0  0  0  0  0  0  0  0  0
    3.4731   -0.4130   -0.8840 H   0  0  0  0  0  0  0  0  0  0  0  0
    3.9107   -2.0815   -0.2759 H   0  0  0  0  0  0  0  0  0  0  0  0
  1  2  2  0  0  0  0
  2  3  1  0  0  0  0
  3  4  4  0  0  0  0
  4  5  4  0  0  0  0
  5  6  4  0  0  0  0
  6  7  4  0  0  0  0
  6  8  4  0  0  0  0
  8  9  1  0  0  0  0
  9 10  2  0  0  0  0
  3 11  4  0  0  0  0
  8 11  4  0  0  0  0
  1 12  1  0  0  0  0
  1 13  1  0  0  0  0
  2 14  1  0  0  0  0
  4 15  1  0  0  0  0
  7 16  1  0  0  0  0
  7 17  1  0  0  0  0
  9 18  1  0  0  0  0
 10 19  1  0  0  0  0
 10 20  1  0  0  0  0
M  END
