
  xtb     02032211343D
 xtb: 6.4.1 (23d549d)
 32 34  0     0  0            999 V2000
   -2.6977   -3.1050    0.9781 C   0  0  0  0  0  0  0  0  0  0  0  0
   -2.4717   -2.4757   -0.3961 C   0  0  0  0  0  0  0  0  0  0  0  0
   -1.9226   -1.1506   -0.2894 N   0  0  0  0  0  0  0  0  0  0  0  0
   -2.6501    0.0101   -0.1540 C   0  0  0  0  0  0  0  0  0  0  0  0
   -1.7652    1.1050   -0.0095 C   0  0  0  0  0  0  0  0  0  0  0  0
   -2.2663    2.3922    0.1308 C   0  0  0  0  0  0  0  0  0  0  0  0
   -3.6349    2.5727    0.1280 C   0  0  0  0  0  0  0  0  0  0  0  0
   -4.4998    1.4894   -0.0108 C   0  0  0  0  0  0  0  0  0  0  0  0
   -4.0251    0.1996   -0.1520 C   0  0  0  0  0  0  0  0  0  0  0  0
   -0.5900   -0.8423   -0.2059 C   0  0  0  0  0  0  0  0  0  0  0  0
   -0.4383    0.5573   -0.0428 C   0  0  0  0  0  0  0  0  0  0  0  0
    0.8245    1.1144    0.0532 C   0  0  0  0  0  0  0  0  0  0  0  0
    1.9457    0.2890   -0.0099 C   0  0  0  0  0  0  0  0  0  0  0  0
    3.2527    0.9142    0.0942 C   0  0  0  0  0  0  0  0  0  0  0  0
    4.4523    0.3529    0.0591 C   0  0  0  0  0  0  0  0  0  0  0  0
    4.7587   -0.9344   -0.0806 F   0  0  0  0  0  0  0  0  0  0  0  0
    5.5854    1.0517    0.1665 F   0  0  0  0  0  0  0  0  0  0  0  0
    1.7744   -1.0969   -0.1677 C   0  0  0  0  0  0  0  0  0  0  0  0
    0.5250   -1.6696   -0.2648 C   0  0  0  0  0  0  0  0  0  0  0  0
   -3.1128   -4.1035    0.8701 H   0  0  0  0  0  0  0  0  0  0  0  0
   -3.3878   -2.4990    1.5606 H   0  0  0  0  0  0  0  0  0  0  0  0
   -1.7573   -3.1725    1.5201 H   0  0  0  0  0  0  0  0  0  0  0  0
   -3.4175   -2.4154   -0.9414 H   0  0  0  0  0  0  0  0  0  0  0  0
   -1.7823   -3.0903   -0.9813 H   0  0  0  0  0  0  0  0  0  0  0  0
   -1.5961    3.2314    0.2405 H   0  0  0  0  0  0  0  0  0  0  0  0
   -4.0461    3.5651    0.2364 H   0  0  0  0  0  0  0  0  0  0  0  0
   -5.5660    1.6618   -0.0060 H   0  0  0  0  0  0  0  0  0  0  0  0
   -4.7106   -0.6283   -0.2541 H   0  0  0  0  0  0  0  0  0  0  0  0
    0.9395    2.1809    0.1767 H   0  0  0  0  0  0  0  0  0  0  0  0
    3.2604    1.9880    0.2167 H   0  0  0  0  0  0  0  0  0  0  0  0
    2.6389   -1.7379   -0.2129 H   0  0  0  0  0  0  0  0  0  0  0  0
    0.4281   -2.7384   -0.3810 H   0  0  0  0  0  0  0  0  0  0  0  0
  1  2  1  0  0  0  0
  2  3  1  0  0  0  0
  3  4  1  0  0  0  0
  4  5  4  0  0  0  0
  5  6  4  0  0  0  0
  6  7  4  0  0  0  0
  7  8  4  0  0  0  0
  4  9  4  0  0  0  0
  8  9  4  0  0  0  0
  3 10  1  0  0  0  0
  5 11  1  0  0  0  0
 10 11  4  0  0  0  0
 11 12  4  0  0  0  0
 12 13  4  0  0  0  0
 13 14  1  0  0  0  0
 14 15  2  0  0  0  0
 15 16  1  0  0  0  0
 15 17  1  0  0  0  0
 13 18  4  0  0  0  0
 10 19  4  0  0  0  0
 18 19  4  0  0  0  0
  1 20  1  0  0  0  0
  1 21  1  0  0  0  0
  1 22  1  0  0  0  0
  2 23  1  0  0  0  0
  2 24  1  0  0  0  0
  6 25  1  0  0  0  0
  7 26  1  0  0  0  0
  8 27  1  0  0  0  0
  9 28  1  0  0  0  0
 12 29  1  0  0  0  0
 14 30  1  0  0  0  0
 18 31  1  0  0  0  0
 19 32  1  0  0  0  0
M  END
