
  xtb     02032211353D
 xtb: 6.4.1 (23d549d)
 24 24  0     0  0            999 V2000
    3.9650   -1.0046   -0.4900 C   0  0  0  0  0  0  0  0  0  0  0  0
    3.2638    0.0742   -0.1637 C   0  0  0  0  0  0  0  0  0  0  0  0
    1.8166    0.1449   -0.0053 C   0  0  0  0  0  0  0  0  0  0  0  0
    0.9862   -0.9734    0.0071 C   0  0  0  0  0  0  0  0  0  0  0  0
   -0.3923   -0.8858    0.1662 C   0  0  0  0  0  0  0  0  0  0  0  0
   -1.2222   -2.0858    0.2409 C   0  0  0  0  0  0  0  0  0  0  0  0
   -0.9673   -3.2335   -0.3725 C   0  0  0  0  0  0  0  0  0  0  0  0
   -0.9649    0.3856    0.3018 C   0  0  0  0  0  0  0  0  0  0  0  0
   -2.7270    0.6030    0.4618 S   0  0  0  0  0  0  0  0  0  0  0  0
   -3.2499    0.0234   -1.1849 C   0  0  0  0  0  0  0  0  0  0  0  0
   -0.1683    1.5182    0.3115 C   0  0  0  0  0  0  0  0  0  0  0  0
    1.1966    1.3864    0.1656 C   0  0  0  0  0  0  0  0  0  0  0  0
    1.9480    2.5082    0.1767 F   0  0  0  0  0  0  0  0  0  0  0  0
    5.0359   -0.9622   -0.5872 H   0  0  0  0  0  0  0  0  0  0  0  0
    3.5122   -1.9631   -0.6780 H   0  0  0  0  0  0  0  0  0  0  0  0
    3.7800    1.0120   -0.0058 H   0  0  0  0  0  0  0  0  0  0  0  0
    1.4297   -1.9527   -0.0721 H   0  0  0  0  0  0  0  0  0  0  0  0
   -2.1123   -1.9836    0.8500 H   0  0  0  0  0  0  0  0  0  0  0  0
   -0.1142   -3.3644   -1.0174 H   0  0  0  0  0  0  0  0  0  0  0  0
   -1.6171   -4.0849   -0.2650 H   0  0  0  0  0  0  0  0  0  0  0  0
   -4.3328    0.0871   -1.2001 H   0  0  0  0  0  0  0  0  0  0  0  0
   -2.9286   -1.0023   -1.3380 H   0  0  0  0  0  0  0  0  0  0  0  0
   -2.8257    0.6768   -1.9415 H   0  0  0  0  0  0  0  0  0  0  0  0
   -0.6075    2.4960    0.4299 H   0  0  0  0  0  0  0  0  0  0  0  0
  1  2  2  0  0  0  0
  2  3  1  0  0  0  0
  3  4  4  0  0  0  0
  4  5  4  0  0  0  0
  5  6  1  0  0  0  0
  6  7  2  0  0  0  0
  5  8  4  0  0  0  0
  8  9  1  0  0  0  0
  9 10  1  0  0  0  0
  8 11  4  0  0  0  0
  3 12  4  0  0  0  0
 11 12  4  0  0  0  0
 12 13  1  0  0  0  0
  1 14  1  0  0  0  0
  1 15  1  0  0  0  0
  2 16  1  0  0  0  0
  4 17  1  0  0  0  0
  6 18  1  0  0  0  0
  7 19  1  0  0  0  0
  7 20  1  0  0  0  0
 10 21  1  0  0  0  0
 10 22  1  0  0  0  0
 10 23  1  0  0  0  0
 11 24  1  0  0  0  0
M  END
