
 OpenBabel02032211033D

 32 32  0  0  0  0  0  0  0  0999 V2000
    0.9784   -0.0064   -0.1310 C   0  0  0  0  0  0  0  0  0  0  0  0
    2.2159    0.3922    0.1937 C   0  0  0  0  0  0  0  0  0  0  0  0
    3.0742   -0.2345    1.2399 C   0  0  0  0  0  0  0  0  0  0  0  0
    4.3358    0.3245    1.4768 C   0  0  0  0  0  0  0  0  0  0  0  0
    5.1979   -0.2045    2.4454 C   0  0  0  0  0  0  0  0  0  0  0  0
    6.5268    0.4485    2.6280 C   0  0  0  0  0  0  0  0  0  0  0  0
    7.4738    0.0499    3.4883 C   0  0  0  0  0  0  0  0  0  0  0  0
    4.7776   -1.3200    3.1958 C   0  0  0  0  0  0  0  0  0  0  0  0
    3.5118   -1.9144    2.9837 C   0  0  0  0  0  0  0  0  0  0  0  0
    3.0212   -3.1442    3.7851 C   0  0  0  0  0  0  0  0  0  0  0  0
    4.0315   -3.6119    4.8612 C   0  0  0  0  0  0  0  0  0  0  0  0
    1.7001   -2.8011    4.5095 C   0  0  0  0  0  0  0  0  0  0  0  0
    2.7886   -4.3240    2.8169 C   0  0  0  0  0  0  0  0  0  0  0  0
    2.6753   -1.3540    1.9933 C   0  0  0  0  0  0  0  0  0  0  0  0
    0.4358    0.5225   -0.9082 H   0  0  0  0  0  0  0  0  0  0  0  0
    0.4777   -0.8373    0.3469 H   0  0  0  0  0  0  0  0  0  0  0  0
    2.6163    1.2437   -0.3507 H   0  0  0  0  0  0  0  0  0  0  0  0
    4.6520    1.1856    0.8975 H   0  0  0  0  0  0  0  0  0  0  0  0
    6.7561    1.3159    2.0142 H   0  0  0  0  0  0  0  0  0  0  0  0
    7.3606   -0.8016    4.1452 H   0  0  0  0  0  0  0  0  0  0  0  0
    8.4103    0.5963    3.5391 H   0  0  0  0  0  0  0  0  0  0  0  0
    5.4387   -1.7220    3.9397 H   0  0  0  0  0  0  0  0  0  0  0  0
    4.2178   -2.8063    5.6045 H   0  0  0  0  0  0  0  0  0  0  0  0
    4.9960   -3.9154    4.4000 H   0  0  0  0  0  0  0  0  0  0  0  0
    3.6372   -4.4920    5.4145 H   0  0  0  0  0  0  0  0  0  0  0  0
    1.8516   -1.9530    5.2115 H   0  0  0  0  0  0  0  0  0  0  0  0
    1.3324   -3.6748    5.0903 H   0  0  0  0  0  0  0  0  0  0  0  0
    0.8971   -2.5222    3.7965 H   0  0  0  0  0  0  0  0  0  0  0  0
    3.7357   -4.5880    2.2979 H   0  0  0  0  0  0  0  0  0  0  0  0
    2.0278   -4.0799    2.0470 H   0  0  0  0  0  0  0  0  0  0  0  0
    2.4319   -5.2211    3.3680 H   0  0  0  0  0  0  0  0  0  0  0  0
    1.7107   -1.7982    1.8188 H   0  0  0  0  0  0  0  0  0  0  0  0
  1  2  2  0  0  0  0
  1 15  1  0  0  0  0
  1 16  1  0  0  0  0
  2  3  1  0  0  0  0
  2 17  1  0  0  0  0
  3  4  1  0  0  0  0
  3 14  2  0  0  0  0
  4  5  2  0  0  0  0
  4 18  1  0  0  0  0
  5  6  1  0  0  0  0
  5  8  1  0  0  0  0
  6  7  2  0  0  0  0
  6 19  1  0  0  0  0
  7 20  1  0  0  0  0
  7 21  1  0  0  0  0
  8  9  2  0  0  0  0
  8 22  1  0  0  0  0
  9 10  1  0  0  0  0
  9 14  1  0  0  0  0
 10 11  1  0  0  0  0
 10 12  1  0  0  0  0
 10 13  1  0  0  0  0
 11 23  1  0  0  0  0
 11 24  1  0  0  0  0
 11 25  1  0  0  0  0
 12 26  1  0  0  0  0
 12 27  1  0  0  0  0
 12 28  1  0  0  0  0
 13 29  1  0  0  0  0
 13 30  1  0  0  0  0
 13 31  1  0  0  0  0
 14 32  1  0  0  0  0
M  END
