16

C          2.62661       -0.61913       -1.17638
C          2.35370        0.02810       -0.03880
C          3.09900       -0.22400        1.20960
C          4.24320        0.49000        1.55380
S          4.79300       -0.08790        3.03440
C          3.55690       -1.21830        3.17480
C          3.40340       -2.14300        4.31060
C          2.68545       -1.82682        5.39245
N          2.72220       -1.17120        2.11260
H          2.05359       -0.40313       -2.07218
H          3.41442       -1.36414       -1.23032
H          1.55535        0.76481       -0.03563
H          4.70100        1.27950        0.97250
H          3.88965       -3.11269        4.26607
H          2.18279       -0.86822        5.47819
H          2.59643       -2.53622        6.20884
16

C          1.35048        0.90930       -0.10588
C          2.35370        0.02810       -0.03880
C          3.09900       -0.22400        1.20960
C          4.24320        0.49000        1.55380
S          4.79300       -0.08790        3.03440
C          3.55690       -1.21830        3.17480
C          3.40340       -2.14300        4.31060
C          3.96177       -3.35707        4.31910
N          2.72220       -1.17120        2.11260
H          0.82871        1.06415       -1.04462
H          1.03923        1.48187        0.76240
H          2.62796       -0.52036       -0.93551
H          4.70100        1.27950        0.97250
H          2.81754       -1.82668        5.16817
H          4.55539       -3.71321        3.48261
H          3.82516       -4.00927        5.17563
16

C          2.62661       -0.61913       -1.17638
C          2.35370        0.02810       -0.03880
C          3.09900       -0.22400        1.20960
C          4.24320        0.49000        1.55380
S          4.79300       -0.08790        3.03440
C          3.55690       -1.21830        3.17480
C          3.40340       -2.14300        4.31060
C          3.81940       -1.83163        5.54178
N          2.72220       -1.17120        2.11260
H          2.05359       -0.40313       -2.07218
H          3.41442       -1.36414       -1.23032
H          1.55535        0.76481       -0.03563
H          4.70100        1.27950        0.97250
H          2.93680       -3.10847        4.14073
H          4.29092       -0.87726        5.75574
H          3.68802       -2.54081        6.35263
16

C          2.62661       -0.61913       -1.17638
C          2.35370        0.02810       -0.03880
C          3.09900       -0.22400        1.20960
C          4.24320        0.49000        1.55380
S          4.79300       -0.08790        3.03440
C          3.55690       -1.21830        3.17480
C          3.40340       -2.14300        4.31060
C          3.96177       -3.35707        4.31910
N          2.72220       -1.17120        2.11260
H          2.05359       -0.40313       -2.07218
H          3.41442       -1.36414       -1.23032
H          1.55535        0.76481       -0.03563
H          4.70100        1.27950        0.97250
H          2.81754       -1.82668        5.16817
H          4.55539       -3.71321        3.48261
H          3.82516       -4.00927        5.17563
16

C          1.35048        0.90930       -0.10588
C          2.35370        0.02810       -0.03880
C          3.09900       -0.22400        1.20960
C          4.24320        0.49000        1.55380
S          4.79300       -0.08790        3.03440
C          3.55690       -1.21830        3.17480
C          3.40340       -2.14300        4.31060
C          2.68545       -1.82682        5.39245
N          2.72220       -1.17120        2.11260
H          0.82871        1.06415       -1.04462
H          1.03923        1.48187        0.76240
H          2.62796       -0.52036       -0.93551
H          4.70100        1.27950        0.97250
H          3.88965       -3.11269        4.26607
H          2.18279       -0.86822        5.47819
H          2.59643       -2.53622        6.20884
16

C          2.62661       -0.61913       -1.17638
C          2.35370        0.02810       -0.03880
C          3.09900       -0.22400        1.20960
C          4.24320        0.49000        1.55380
S          4.79300       -0.08790        3.03440
C          3.55690       -1.21830        3.17480
C          3.40340       -2.14300        4.31060
C          4.45075       -2.58859        5.01083
N          2.72220       -1.17120        2.11260
H          2.05359       -0.40313       -2.07218
H          3.41442       -1.36414       -1.23032
H          1.55535        0.76481       -0.03563
H          4.70100        1.27950        0.97250
H          2.40647       -2.47233        4.58696
H          5.46457       -2.28458        4.76860
H          4.29582       -3.26948        5.84153
16

C          2.95009        0.47615       -1.14833
C          2.35370        0.02810       -0.03880
C          3.09900       -0.22400        1.20960
C          4.24320        0.49000        1.55380
S          4.79300       -0.08790        3.03440
C          3.55690       -1.21830        3.17480
C          3.40340       -2.14300        4.31060
C          3.96177       -3.35707        4.31910
N          2.72220       -1.17120        2.11260
H          2.36417        0.64822       -2.04529
H          4.01698        0.67480       -1.17831
H          1.28326       -0.15594       -0.05913
H          4.70100        1.27950        0.97250
H          2.81754       -1.82668        5.16817
H          4.55539       -3.71321        3.48261
H          3.82516       -4.00927        5.17563
16

C          2.31884        1.23221       -0.61878
C          2.35370        0.02810       -0.03880
C          3.09900       -0.22400        1.20960
C          4.24320        0.49000        1.55380
S          4.79300       -0.08790        3.03440
C          3.55690       -1.21830        3.17480
C          3.40340       -2.14300        4.31060
C          2.68545       -1.82682        5.39245
N          2.72220       -1.17120        2.11260
H          1.75827        1.37404       -1.53699
H          2.84205        2.08262       -0.19258
H          1.81385       -0.79167       -0.50427
H          4.70100        1.27950        0.97250
H          3.88965       -3.11269        4.26607
H          2.18279       -0.86822        5.47819
H          2.59643       -2.53622        6.20884
16

C          2.31884        1.23221       -0.61878
C          2.35370        0.02810       -0.03880
C          3.09900       -0.22400        1.20960
C          4.24320        0.49000        1.55380
S          4.79300       -0.08790        3.03440
C          3.55690       -1.21830        3.17480
C          3.40340       -2.14300        4.31060
C          3.96177       -3.35707        4.31910
N          2.72220       -1.17120        2.11260
H          1.75827        1.37404       -1.53699
H          2.84205        2.08262       -0.19258
H          1.81385       -0.79167       -0.50427
H          4.70100        1.27950        0.97250
H          2.81754       -1.82668        5.16817
H          4.55539       -3.71321        3.48261
H          3.82516       -4.00927        5.17563
16

C          2.73108        0.96024       -0.91981
C          2.35370        0.02810       -0.03880
C          3.09900       -0.22400        1.20960
C          4.24320        0.49000        1.55380
S          4.79300       -0.08790        3.03440
C          3.55690       -1.21830        3.17480
C          3.40340       -2.14300        4.31060
C          3.96177       -3.35707        4.31910
N          2.72220       -1.17120        2.11260
H          2.15396        1.11293       -1.82595
H          3.60940        1.57612       -0.75298
H          1.46733       -0.56295       -0.25120
H          4.70100        1.27950        0.97250
H          2.81754       -1.82668        5.16817
H          4.55539       -3.71321        3.48261
H          3.82516       -4.00927        5.17563
