 xtb: 6.5.0 (unknown)
          08112218553D

 19  0  0     0  0            999 V2000
   -3.9630   -1.4939    0.0075 C   0  0  0  0  0  0  0  0  0  0  0  0
   -2.6360   -1.5112   -0.0041 C   0  0  0  0  0  0  0  0  0  0  0  0
   -1.8195   -0.3021   -0.0033 C   0  0  0  0  0  0  0  0  0  0  0  0
   -0.4261   -0.3980   -0.0044 C   0  0  0  0  0  0  0  0  0  0  0  0
    0.3412    0.7648   -0.0016 C   0  0  0  0  0  0  0  0  0  0  0  0
    1.7967    0.7808   -0.0004 C   0  0  0  0  0  0  0  0  0  0  0  0
    2.6254   -0.2525    0.0007 C   0  0  0  0  0  0  0  0  0  0  0  0
    2.3207   -1.5424    0.0001 F   0  0  0  0  0  0  0  0  0  0  0  0
    3.9487   -0.1224    0.0027 F   0  0  0  0  0  0  0  0  0  0  0  0
   -0.3399    1.9855    0.0006 C   0  0  0  0  0  0  0  0  0  0  0  0
   -1.7249    1.9740    0.0007 C   0  0  0  0  0  0  0  0  0  0  0  0
   -2.4483    0.8737   -0.0008 N   0  0  0  0  0  0  0  0  0  0  0  0
   -4.5458   -2.3987    0.0074 H   0  0  0  0  0  0  0  0  0  0  0  0
   -4.4938   -0.5576    0.0175 H   0  0  0  0  0  0  0  0  0  0  0  0
   -2.0884   -2.4443   -0.0138 H   0  0  0  0  0  0  0  0  0  0  0  0
    0.0346   -1.3720   -0.0067 H   0  0  0  0  0  0  0  0  0  0  0  0
    2.2676    1.7533    0.0007 H   0  0  0  0  0  0  0  0  0  0  0  0
    0.2022    2.9183    0.0025 H   0  0  0  0  0  0  0  0  0  0  0  0
   -2.2860    2.8999    0.0025 H   0  0  0  0  0  0  0  0  0  0  0  0
M  END
