 xtb: 6.5.0 (unknown)
          08122213083D

 19  0  0     0  0            999 V2000
   -3.9629   -1.4940    0.0017 C   0  0  0  0  0  0  0  0  0  0  0  0
   -2.6360   -1.5112   -0.0007 C   0  0  0  0  0  0  0  0  0  0  0  0
   -1.8195   -0.3021   -0.0008 C   0  0  0  0  0  0  0  0  0  0  0  0
   -0.4261   -0.3979   -0.0012 C   0  0  0  0  0  0  0  0  0  0  0  0
    0.3411    0.7648   -0.0004 C   0  0  0  0  0  0  0  0  0  0  0  0
    1.7967    0.7808   -0.0000 C   0  0  0  0  0  0  0  0  0  0  0  0
    2.6255   -0.2525    0.0001 C   0  0  0  0  0  0  0  0  0  0  0  0
    2.3207   -1.5423   -0.0001 F   0  0  0  0  0  0  0  0  0  0  0  0
    3.9487   -0.1224    0.0007 F   0  0  0  0  0  0  0  0  0  0  0  0
   -0.3399    1.9855    0.0002 C   0  0  0  0  0  0  0  0  0  0  0  0
   -1.7249    1.9740    0.0001 C   0  0  0  0  0  0  0  0  0  0  0  0
   -2.4484    0.8737   -0.0002 N   0  0  0  0  0  0  0  0  0  0  0  0
   -4.5457   -2.3989    0.0020 H   0  0  0  0  0  0  0  0  0  0  0  0
   -4.4939   -0.5578    0.0037 H   0  0  0  0  0  0  0  0  0  0  0  0
   -2.0883   -2.4443   -0.0027 H   0  0  0  0  0  0  0  0  0  0  0  0
    0.0346   -1.3720   -0.0019 H   0  0  0  0  0  0  0  0  0  0  0  0
    2.2675    1.7532    0.0003 H   0  0  0  0  0  0  0  0  0  0  0  0
    0.2022    2.9183    0.0008 H   0  0  0  0  0  0  0  0  0  0  0  0
   -2.2860    2.8999    0.0005 H   0  0  0  0  0  0  0  0  0  0  0  0
M  END
