
 OpenBabel02012214123D

 20 20  0  0  0  0  0  0  0  0999 V2000
   -2.4437    1.1786   -0.0768 C   0  0  0  0  0  0  0  0  0  0  0  0
   -1.1617    0.4063   -0.0336 C   0  0  0  0  0  0  0  0  0  0  0  0
    0.0718    1.0530    0.0334 C   0  0  0  0  0  0  0  0  0  0  0  0
    1.2681    0.3113    0.0767 C   0  0  0  0  0  0  0  0  0  0  0  0
    2.5439    1.1058    0.1459 C   0  0  0  0  0  0  0  0  0  0  0  0
    1.2057   -1.1201    0.0503 C   0  0  0  0  0  0  0  0  0  0  0  0
    2.3769   -2.0820    0.0861 C   0  0  0  0  0  0  0  0  0  0  0  0
    2.1463   -3.2803    0.0195 O   0  0  0  0  0  0  0  0  0  0  0  0
    3.6787   -1.7301    0.1905 O   0  0  0  0  0  0  0  0  0  0  0  0
   -0.0820   -1.7045   -0.0217 C   0  0  0  0  0  0  0  0  0  0  0  0
   -1.2045   -0.9456   -0.0595 N   0  0  0  0  0  0  0  0  0  0  0  0
   -2.2637    2.2744   -0.0491 H   0  0  0  0  0  0  0  0  0  0  0  0
   -3.0714    0.9017    0.7958 H   0  0  0  0  0  0  0  0  0  0  0  0
   -2.9921    0.9339   -1.0106 H   0  0  0  0  0  0  0  0  0  0  0  0
    0.0972    2.1364    0.0521 H   0  0  0  0  0  0  0  0  0  0  0  0
    2.3580    2.2011    0.1381 H   0  0  0  0  0  0  0  0  0  0  0  0
    3.1738    0.8866   -0.7416 H   0  0  0  0  0  0  0  0  0  0  0  0
    3.0738    0.8878    1.0957 H   0  0  0  0  0  0  0  0  0  0  0  0
    4.0427   -0.8490    0.2729 H   0  0  0  0  0  0  0  0  0  0  0  0
   -0.2064   -2.7790   -0.0465 H   0  0  0  0  0  0  0  0  0  0  0  0
  1  2  1  0  0  0  0
  1 12  1  0  0  0  0
  1 13  1  0  0  0  0
  1 14  1  0  0  0  0
  2  3  1  0  0  0  0
  2 11  2  0  0  0  0
  3  4  2  0  0  0  0
  3 15  1  0  0  0  0
  4  5  1  0  0  0  0
  4  6  1  0  0  0  0
  5 16  1  0  0  0  0
  5 17  1  0  0  0  0
  5 18  1  0  0  0  0
  6  7  1  0  0  0  0
  6 10  2  0  0  0  0
  7  8  2  0  0  0  0
  7  9  1  0  0  0  0
  9 19  1  0  0  0  0
 10 11  1  0  0  0  0
 10 20  1  0  0  0  0
M  END
