18

C          0.91550       -0.03230        0.04020
C          2.40570        0.04510        0.04070
C          3.27490       -1.05400        0.04000
C          4.59610       -0.62380        0.04010
S          6.07960       -1.40560        0.03900
C          6.96420        0.05530        0.03950
C          8.45320        0.14800        0.03810
C          6.09510        1.15300        0.04090
C          4.77410        0.72260        0.04100
S          3.29080        1.50450        0.04190
H          0.57740       -1.09010        0.03920
H          0.51900        0.47350       -0.86440
H          0.51820        0.47220        0.94530
H          2.96610       -2.09090        0.03910
H          8.90280       -0.86670        0.03680
H          8.79390        0.69270        0.94330
H          8.79180        0.69390       -0.86720
H          6.40520        2.18970        0.04120
