
  xtb     02012213483D
 xtb: 6.4.1 (23d549d)
 18 19  0     0  0            999 V2000
    0.9121   -0.0380    0.0406 c   0  0  0  0  0  0  0  0  0  0  0  0
    2.3982   -0.0085    0.0405 c   0  0  0  0  0  0  0  0  0  0  0  0
    3.2595   -1.0596    0.0395 c   0  0  0  0  0  0  0  0  0  0  0  0
    4.6053   -0.6359    0.0396 c   0  0  0  0  0  0  0  0  0  0  0  0
    6.1410   -1.4283    0.0384 s   0  0  0  0  0  0  0  0  0  0  0  0
    6.9696    0.1120    0.0392 c   0  0  0  0  0  0  0  0  0  0  0  0
    8.4579    0.1479    0.0384 c   0  0  0  0  0  0  0  0  0  0  0  0
    6.1077    1.1647    0.0404 c   0  0  0  0  0  0  0  0  0  0  0  0
    4.7635    0.7404    0.0406 c   0  0  0  0  0  0  0  0  0  0  0  0
    3.2273    1.5353    0.0415 s   0  0  0  0  0  0  0  0  0  0  0  0
    0.5605   -1.0670    0.0398 h   0  0  0  0  0  0  0  0  0  0  0  0
    0.5179    0.4699   -0.8396 h   0  0  0  0  0  0  0  0  0  0  0  0
    0.5180    0.4687    0.9214 h   0  0  0  0  0  0  0  0  0  0  0  0
    2.9497   -2.0888    0.0388 h   0  0  0  0  0  0  0  0  0  0  0  0
    8.8606   -0.8617    0.0375 h   0  0  0  0  0  0  0  0  0  0  0  0
    8.8282    0.6708    0.9203 h   0  0  0  0  0  0  0  0  0  0  0  0
    8.8273    0.6720   -0.8432 h   0  0  0  0  0  0  0  0  0  0  0  0
    6.4193    2.1934    0.0410 h   0  0  0  0  0  0  0  0  0  0  0  0
  1  2  1  0  0  0  0
  2  3  2  0  0  0  0
  3  4  4  0  0  0  0
  4  5  1  0  0  0  0
  5  6  1  0  0  0  0
  6  7  1  0  0  0  0
  6  8  2  0  0  0  0
  4  9  4  0  0  0  0
  8  9  4  0  0  0  0
  2 10  1  0  0  0  0
  9 10  1  0  0  0  0
  1 11  1  0  0  0  0
  1 12  1  0  0  0  0
  1 13  1  0  0  0  0
  3 14  1  0  0  0  0
  7 15  1  0  0  0  0
  7 16  1  0  0  0  0
  7 17  1  0  0  0  0
  8 18  1  0  0  0  0
M  END
