
  xtb     02032211353D
 xtb: 6.4.1 (23d549d)
 23 23  0     0  0            999 V2000
   -2.7989   -1.3659    0.1804 C   0  0  0  0  0  0  0  0  0  0  0  0
   -1.5511   -1.3302   -0.2713 C   0  0  0  0  0  0  0  0  0  0  0  0
   -0.6167   -0.2410   -0.0915 C   0  0  0  0  0  0  0  0  0  0  0  0
   -0.8786    1.1468    0.0033 C   0  0  0  0  0  0  0  0  0  0  0  0
   -2.1864    1.8531    0.0085 C   0  0  0  0  0  0  0  0  0  0  0  0
    0.2545    1.8265    0.0566 N   0  0  0  0  0  0  0  0  0  0  0  0
    1.2440    0.9400   -0.0019 N   0  0  0  0  0  0  0  0  0  0  0  0
    2.6048    1.3845    0.0717 C   0  0  0  0  0  0  0  0  0  0  0  0
    0.7810   -0.3326   -0.0904 C   0  0  0  0  0  0  0  0  0  0  0  0
    1.6656   -1.4692   -0.1527 C   0  0  0  0  0  0  0  0  0  0  0  0
    1.3511   -2.7010    0.2353 C   0  0  0  0  0  0  0  0  0  0  0  0
   -3.4414   -2.2076   -0.0164 H   0  0  0  0  0  0  0  0  0  0  0  0
   -3.2175   -0.5757    0.7779 H   0  0  0  0  0  0  0  0  0  0  0  0
   -1.1630   -2.1686   -0.8386 H   0  0  0  0  0  0  0  0  0  0  0  0
   -2.8675    1.3926   -0.7047 H   0  0  0  0  0  0  0  0  0  0  0  0
   -2.0300    2.8964   -0.2526 H   0  0  0  0  0  0  0  0  0  0  0  0
   -2.6413    1.8112    0.9981 H   0  0  0  0  0  0  0  0  0  0  0  0
    2.5846    2.4650    0.1974 H   0  0  0  0  0  0  0  0  0  0  0  0
    3.1455    1.1398   -0.8458 H   0  0  0  0  0  0  0  0  0  0  0  0
    3.1174    0.9288    0.9213 H   0  0  0  0  0  0  0  0  0  0  0  0
    2.6568   -1.2674   -0.5411 H   0  0  0  0  0  0  0  0  0  0  0  0
    0.3948   -2.9351    0.6691 H   0  0  0  0  0  0  0  0  0  0  0  0
    2.0532   -3.5122    0.1464 H   0  0  0  0  0  0  0  0  0  0  0  0
  1  2  2  0  0  0  0
  2  3  1  0  0  0  0
  3  4  4  0  0  0  0
  4  5  1  0  0  0  0
  4  6  4  0  0  0  0
  6  7  1  0  0  0  0
  7  8  1  0  0  0  0
  3  9  4  0  0  0  0
  7  9  4  0  0  0  0
  9 10  1  0  0  0  0
 10 11  2  0  0  0  0
  1 12  1  0  0  0  0
  1 13  1  0  0  0  0
  2 14  1  0  0  0  0
  5 15  1  0  0  0  0
  5 16  1  0  0  0  0
  5 17  1  0  0  0  0
  8 18  1  0  0  0  0
  8 19  1  0  0  0  0
  8 20  1  0  0  0  0
 10 21  1  0  0  0  0
 11 22  1  0  0  0  0
 11 23  1  0  0  0  0
M  END
