
  xtb     02032210403D
 xtb: 6.4.1 (23d549d)
 46 50  0     0  0            999 V2000
    0.8726    0.6643   -1.4224 f   0  0  0  0  0  0  0  0  0  0  0  0
    2.1908    0.7081   -1.6276 c   0  0  0  0  0  0  0  0  0  0  0  0
    2.4355    1.5116   -2.6585 f   0  0  0  0  0  0  0  0  0  0  0  0
    3.0608    0.0381   -0.8857 c   0  0  0  0  0  0  0  0  0  0  0  0
    4.5090    0.0020   -0.9954 c   0  0  0  0  0  0  0  0  0  0  0  0
    5.2138    0.6650   -1.9973 c   0  0  0  0  0  0  0  0  0  0  0  0
    6.5956    0.5840   -2.0128 c   0  0  0  0  0  0  0  0  0  0  0  0
    7.5992    1.1219   -2.8902 c   0  0  0  0  0  0  0  0  0  0  0  0
    7.5431    1.9274   -4.0169 c   0  0  0  0  0  0  0  0  0  0  0  0
    8.7260    2.2966   -4.6443 c   0  0  0  0  0  0  0  0  0  0  0  0
    8.6991    3.1433   -5.8467 c   0  0  0  0  0  0  0  0  0  0  0  0
    7.8284    4.2272   -5.9329 c   0  0  0  0  0  0  0  0  0  0  0  0
    7.8055    5.0244   -7.0619 c   0  0  0  0  0  0  0  0  0  0  0  0
    8.6481    4.7501   -8.1260 c   0  0  0  0  0  0  0  0  0  0  0  0
    9.5159    3.6733   -8.0527 c   0  0  0  0  0  0  0  0  0  0  0  0
    9.5434    2.8779   -6.9225 c   0  0  0  0  0  0  0  0  0  0  0  0
    9.9526    1.8680   -4.1182 c   0  0  0  0  0  0  0  0  0  0  0  0
   10.0314    1.0714   -2.9944 c   0  0  0  0  0  0  0  0  0  0  0  0
    8.8451    0.6814   -2.3899 c   0  0  0  0  0  0  0  0  0  0  0  0
    8.6395   -0.0869   -1.2596 n   0  0  0  0  0  0  0  0  0  0  0  0
    9.6425   -0.6880   -0.4845 c   0  0  0  0  0  0  0  0  0  0  0  0
    9.6627   -0.5059    0.8950 c   0  0  0  0  0  0  0  0  0  0  0  0
   10.6525   -1.1016    1.6546 c   0  0  0  0  0  0  0  0  0  0  0  0
   11.6313   -1.8708    1.0476 c   0  0  0  0  0  0  0  0  0  0  0  0
   11.6146   -2.0490   -0.3258 c   0  0  0  0  0  0  0  0  0  0  0  0
   10.6228   -1.4663   -1.0928 c   0  0  0  0  0  0  0  0  0  0  0  0
    7.2860   -0.1522   -1.0203 c   0  0  0  0  0  0  0  0  0  0  0  0
    6.5873   -0.8410   -0.0370 c   0  0  0  0  0  0  0  0  0  0  0  0
    5.2129   -0.7508   -0.0386 c   0  0  0  0  0  0  0  0  0  0  0  0
    2.6228   -0.5495   -0.0915 h   0  0  0  0  0  0  0  0  0  0  0  0
    4.7049    1.2315   -2.7589 h   0  0  0  0  0  0  0  0  0  0  0  0
    6.5903    2.2476   -4.4099 h   0  0  0  0  0  0  0  0  0  0  0  0
    7.1804    4.4563   -5.0993 h   0  0  0  0  0  0  0  0  0  0  0  0
    7.1289    5.8654   -7.1117 h   0  0  0  0  0  0  0  0  0  0  0  0
    8.6287    5.3726   -9.0084 h   0  0  0  0  0  0  0  0  0  0  0  0
   10.1729    3.4514   -8.8816 h   0  0  0  0  0  0  0  0  0  0  0  0
   10.2108    2.0291   -6.8789 h   0  0  0  0  0  0  0  0  0  0  0  0
   10.8650    2.1939   -4.5953 h   0  0  0  0  0  0  0  0  0  0  0  0
   10.9889    0.7751   -2.5933 h   0  0  0  0  0  0  0  0  0  0  0  0
    8.9112    0.1136    1.3615 h   0  0  0  0  0  0  0  0  0  0  0  0
   10.6644   -0.9568    2.7247 h   0  0  0  0  0  0  0  0  0  0  0  0
   12.4055   -2.3301    1.6434 h   0  0  0  0  0  0  0  0  0  0  0  0
   12.3735   -2.6515   -0.8024 h   0  0  0  0  0  0  0  0  0  0  0  0
   10.5930   -1.6205   -2.1610 h   0  0  0  0  0  0  0  0  0  0  0  0
    7.1009   -1.4382    0.7009 h   0  0  0  0  0  0  0  0  0  0  0  0
    4.6531   -1.2767    0.7208 h   0  0  0  0  0  0  0  0  0  0  0  0
  1  2  1  0  0  0  0
  2  3  1  0  0  0  0
  2  4  2  0  0  0  0
  4  5  1  0  0  0  0
  5  6  4  0  0  0  0
  6  7  4  0  0  0  0
  7  8  1  0  0  0  0
  8  9  4  0  0  0  0
  9 10  4  0  0  0  0
 10 11  1  0  0  0  0
 11 12  4  0  0  0  0
 12 13  4  0  0  0  0
 13 14  4  0  0  0  0
 14 15  4  0  0  0  0
 11 16  4  0  0  0  0
 15 16  4  0  0  0  0
 10 17  4  0  0  0  0
 17 18  4  0  0  0  0
  8 19  4  0  0  0  0
 18 19  4  0  0  0  0
 19 20  1  0  0  0  0
 20 21  1  0  0  0  0
 21 22  4  0  0  0  0
 22 23  4  0  0  0  0
 23 24  4  0  0  0  0
 24 25  4  0  0  0  0
 21 26  4  0  0  0  0
 25 26  4  0  0  0  0
  7 27  4  0  0  0  0
 20 27  1  0  0  0  0
 27 28  4  0  0  0  0
  5 29  4  0  0  0  0
 28 29  4  0  0  0  0
  4 30  1  0  0  0  0
  6 31  1  0  0  0  0
  9 32  1  0  0  0  0
 12 33  1  0  0  0  0
 13 34  1  0  0  0  0
 14 35  1  0  0  0  0
 15 36  1  0  0  0  0
 16 37  1  0  0  0  0
 17 38  1  0  0  0  0
 18 39  1  0  0  0  0
 22 40  1  0  0  0  0
 23 41  1  0  0  0  0
 24 42  1  0  0  0  0
 25 43  1  0  0  0  0
 26 44  1  0  0  0  0
 28 45  1  0  0  0  0
 29 46  1  0  0  0  0
M  END
