
 OpenBabel02012213483D

 19 20  0  0  0  0  0  0  0  0999 V2000
    0.9594    0.0929    0.0221 C   0  0  0  0  0  0  0  0  0  0  0  0
    2.4554    0.0716    0.0217 C   0  0  0  0  0  0  0  0  0  0  0  0
    3.2131    1.2638    0.0228 C   0  0  0  0  0  0  0  0  0  0  0  0
    4.6301    1.2997    0.0234 C   0  0  0  0  0  0  0  0  0  0  0  0
    5.4463    0.1463    0.0232 C   0  0  0  0  0  0  0  0  0  0  0  0
    6.9390    0.2417    0.0253 C   0  0  0  0  0  0  0  0  0  0  0  0
    4.7362   -1.0858    0.0221 C   0  0  0  0  0  0  0  0  0  0  0  0
    5.2902   -2.3103    0.0222 N   0  0  0  0  0  0  0  0  0  0  0  0
    4.0387   -3.3981    0.0212 S   0  0  0  0  0  0  0  0  0  0  0  0
    2.7342   -2.3744    0.0204 N   0  0  0  0  0  0  0  0  0  0  0  0
    3.2259   -1.1237    0.0212 C   0  0  0  0  0  0  0  0  0  0  0  0
    0.5707    1.1161    0.0229 H   0  0  0  0  0  0  0  0  0  0  0  0
    0.5777   -0.4152    0.9131 H   0  0  0  0  0  0  0  0  0  0  0  0
    0.5769   -0.4141   -0.8693 H   0  0  0  0  0  0  0  0  0  0  0  0
    2.6862    2.2201    0.0230 H   0  0  0  0  0  0  0  0  0  0  0  0
    5.1084    2.2809    0.0243 H   0  0  0  0  0  0  0  0  0  0  0  0
    7.2767    1.2828    0.0235 H   0  0  0  0  0  0  0  0  0  0  0  0
    7.3472   -0.2484   -0.8642 H   0  0  0  0  0  0  0  0  0  0  0  0
    7.3441   -0.2446    0.9183 H   0  0  0  0  0  0  0  0  0  0  0  0
  1  2  1  0  0  0  0
  1 12  1  0  0  0  0
  1 13  1  0  0  0  0
  1 14  1  0  0  0  0
  2  3  2  0  0  0  0
  2 11  1  0  0  0  0
  3  4  1  0  0  0  0
  3 15  1  0  0  0  0
  4  5  2  0  0  0  0
  4 16  1  0  0  0  0
  5  6  1  0  0  0  0
  5  7  1  0  0  0  0
  6 17  1  0  0  0  0
  6 18  1  0  0  0  0
  6 19  1  0  0  0  0
  7  8  2  0  0  0  0
  7 11  1  0  0  0  0
  8  9  1  0  0  0  0
  9 10  1  0  0  0  0
 10 11  2  0  0  0  0
M  END
