
 OpenBabel02012213483D

 19 20  0  0  0  0  0  0  0  0999 V2000
    1.0223    0.0551    0.0211 C   0  0  0  0  0  0  0  0  0  0  0  0
    2.5242    0.0852    0.0217 C   0  0  0  0  0  0  0  0  0  0  0  0
    3.2179    1.3092    0.0227 C   0  0  0  0  0  0  0  0  0  0  0  0
    4.6220    1.3436    0.0234 C   0  0  0  0  0  0  0  0  0  0  0  0
    5.3750    0.1554    0.0233 C   0  0  0  0  0  0  0  0  0  0  0  0
    6.8767    0.1992    0.0243 C   0  0  0  0  0  0  0  0  0  0  0  0
    4.6915   -1.0683    0.0222 C   0  0  0  0  0  0  0  0  0  0  0  0
    5.3097   -2.2778    0.0219 N   0  0  0  0  0  0  0  0  0  0  0  0
    4.0343   -3.3284    0.0207 S   0  0  0  0  0  0  0  0  0  0  0  0
    2.7089   -2.3417    0.0205 N   0  0  0  0  0  0  0  0  0  0  0  0
    3.2670   -1.1034    0.0215 C   0  0  0  0  0  0  0  0  0  0  0  0
    0.5949    1.0805    0.0215 H   0  0  0  0  0  0  0  0  0  0  0  0
    0.6585   -0.4761    0.9256 H   0  0  0  0  0  0  0  0  0  0  0  0
    0.6592   -0.4751   -0.8843 H   0  0  0  0  0  0  0  0  0  0  0  0
    2.6727    2.2447    0.0229 H   0  0  0  0  0  0  0  0  0  0  0  0
    5.1206    2.3049    0.0242 H   0  0  0  0  0  0  0  0  0  0  0  0
    7.2531    1.2444    0.0250 H   0  0  0  0  0  0  0  0  0  0  0  0
    7.2666   -0.3126   -0.8806 H   0  0  0  0  0  0  0  0  0  0  0  0
    7.2652   -0.3133    0.9294 H   0  0  0  0  0  0  0  0  0  0  0  0
  1  2  1  0  0  0  0
  1 12  1  0  0  0  0
  1 13  1  0  0  0  0
  1 14  1  0  0  0  0
  2  3  2  0  0  0  0
  2 11  1  0  0  0  0
  3  4  1  0  0  0  0
  3 15  1  0  0  0  0
  4  5  2  0  0  0  0
  4 16  1  0  0  0  0
  5  6  1  0  0  0  0
  5  7  1  0  0  0  0
  6 17  1  0  0  0  0
  6 18  1  0  0  0  0
  6 19  1  0  0  0  0
  7  8  2  0  0  0  0
  7 11  1  0  0  0  0
  8  9  1  0  0  0  0
  9 10  1  0  0  0  0
 10 11  2  0  0  0  0
M  END
