
  xtb     02032211353D
 xtb: 6.4.1 (23d549d)
 22 22  0     0  0            999 V2000
    1.6660    2.4374   -0.4885 C   0  0  0  0  0  0  0  0  0  0  0  0
    0.7792    1.9453    0.3628 C   0  0  0  0  0  0  0  0  0  0  0  0
    0.0766    0.6719    0.1880 C   0  0  0  0  0  0  0  0  0  0  0  0
   -1.3042    0.6516    0.3724 C   0  0  0  0  0  0  0  0  0  0  0  0
   -2.0448   -0.4889    0.0986 C   0  0  0  0  0  0  0  0  0  0  0  0
   -3.5239   -0.5429    0.3135 C   0  0  0  0  0  0  0  0  0  0  0  0
   -1.3378   -1.5837   -0.3908 C   0  0  0  0  0  0  0  0  0  0  0  0
   -0.0297   -1.6027   -0.5309 N   0  0  0  0  0  0  0  0  0  0  0  0
    0.6893   -0.5271   -0.2200 C   0  0  0  0  0  0  0  0  0  0  0  0
    2.1365   -0.7406   -0.2968 C   0  0  0  0  0  0  0  0  0  0  0  0
    3.0273   -0.2603    0.5579 C   0  0  0  0  0  0  0  0  0  0  0  0
    2.1163    3.4042   -0.3413 H   0  0  0  0  0  0  0  0  0  0  0  0
    1.9762    1.8891   -1.3620 H   0  0  0  0  0  0  0  0  0  0  0  0
    0.4606    2.5335    1.2157 H   0  0  0  0  0  0  0  0  0  0  0  0
   -1.8047    1.5504    0.7092 H   0  0  0  0  0  0  0  0  0  0  0  0
   -3.9629    0.4497    0.2420 H   0  0  0  0  0  0  0  0  0  0  0  0
   -3.7403   -0.9390    1.3065 H   0  0  0  0  0  0  0  0  0  0  0  0
   -3.9956   -1.1953   -0.4179 H   0  0  0  0  0  0  0  0  0  0  0  0
   -1.8502   -2.4945   -0.6753 H   0  0  0  0  0  0  0  0  0  0  0  0
    2.4356   -1.4369   -1.0687 H   0  0  0  0  0  0  0  0  0  0  0  0
    2.7491    0.3933    1.3677 H   0  0  0  0  0  0  0  0  0  0  0  0
    4.0726   -0.5061    0.4790 H   0  0  0  0  0  0  0  0  0  0  0  0
  1  2  2  0  0  0  0
  2  3  1  0  0  0  0
  3  4  4  0  0  0  0
  4  5  4  0  0  0  0
  5  6  1  0  0  0  0
  5  7  4  0  0  0  0
  7  8  4  0  0  0  0
  3  9  4  0  0  0  0
  8  9  4  0  0  0  0
  9 10  1  0  0  0  0
 10 11  2  0  0  0  0
  1 12  1  0  0  0  0
  1 13  1  0  0  0  0
  2 14  1  0  0  0  0
  4 15  1  0  0  0  0
  6 16  1  0  0  0  0
  6 17  1  0  0  0  0
  6 18  1  0  0  0  0
  7 19  1  0  0  0  0
 10 20  1  0  0  0  0
 11 21  1  0  0  0  0
 11 22  1  0  0  0  0
M  END
