29

C          1.71549       -1.80809        0.62562
C          0.47815       -1.15220        0.11126
C          0.14975       -0.96398       -1.22572
C         -1.07994       -0.32171       -1.40374
C         -1.71440       -0.00500       -0.20580
C         -3.01540        0.66930       -0.07430
C         -3.92750        0.49060        0.96130
C         -5.08280        1.26930        0.82170
C         -5.08050        2.05710       -0.32520
C         -6.15010        2.97620       -0.74460
C         -5.97459        4.14705       -1.47655
C         -7.17237        4.82503       -1.73038
C         -8.28449        4.18615       -1.19562
C         -9.69647        4.65926       -1.29013
S         -7.79091        2.78223       -0.41256
S         -3.64460        1.78940       -1.16260
S         -0.74785       -0.52199        1.07428
H          2.36387       -2.13498       -0.21502
H          1.43886       -2.69498        1.23245
H          2.27934       -1.09198        1.25848
H          0.77735       -1.28150       -2.04832
H         -1.48985       -0.09631       -2.38006
H         -3.76730       -0.17930        1.79570
H         -5.89320        1.25250        1.53890
H         -5.01290        4.50458       -1.82000
H         -7.22214        5.75259       -2.28566
H         -9.75305        5.61081       -1.85967
H        -10.09954        4.82608       -0.26966
H        -10.31079        3.89265       -1.80615
29

C          1.20032       -2.68175        0.00864
C          0.24249       -1.55199       -0.17022
C          0.51474       -0.34302       -0.79876
C         -0.58255        0.52408       -0.81972
C         -1.71440       -0.00500       -0.20580
C         -3.01540        0.66930       -0.07430
C         -3.92750        0.49060        0.96130
C         -5.08280        1.26930        0.82170
C         -5.08050        2.05710       -0.32520
C         -6.15010        2.97620       -0.74460
C         -6.47357        3.30060       -2.05897
C         -7.53677        4.20517       -2.15942
C         -8.04382        4.59008       -0.92423
C         -9.16940        5.54304       -0.69756
S         -7.18300        3.81142        0.29253
S         -3.64460        1.78940       -1.16260
S         -1.35210       -1.54924        0.36356
H          2.18862       -2.43079       -0.43205
H          0.80188       -3.58731       -0.49389
H          1.33048       -2.89001        1.09074
H          1.47542       -0.09409       -1.23060
H         -0.54624        1.50785       -1.27016
H         -3.76730       -0.17930        1.79570
H         -5.89320        1.25250        1.53890
H         -5.96095        2.89814       -2.92263
H         -7.92039        4.56624       -3.10476
H         -9.56706        5.91615       -1.66487
H         -8.80868        6.40578       -0.09990
H         -9.98432        5.03012       -0.14603
29

C          1.71549       -1.80809        0.62562
C          0.47815       -1.15220        0.11126
C          0.14975       -0.96398       -1.22572
C         -1.07994       -0.32171       -1.40374
C         -1.71440       -0.00500       -0.20580
C         -3.01540        0.66930       -0.07430
C         -3.92750        0.49060        0.96130
C         -5.08280        1.26930        0.82170
C         -5.08050        2.05710       -0.32520
C         -6.15010        2.97620       -0.74460
C         -6.47357        3.30060       -2.05897
C         -7.53677        4.20517       -2.15942
C         -8.04382        4.59008       -0.92423
C         -9.16940        5.54304       -0.69756
S         -7.18300        3.81142        0.29253
S         -3.64460        1.78940       -1.16260
S         -0.74785       -0.52199        1.07428
H          2.36387       -2.13498       -0.21502
H          1.43886       -2.69498        1.23245
H          2.27934       -1.09198        1.25848
H          0.77735       -1.28150       -2.04832
H         -1.48985       -0.09631       -2.38006
H         -3.76730       -0.17930        1.79570
H         -5.89320        1.25250        1.53890
H         -5.96095        2.89814       -2.92263
H         -7.92039        4.56624       -3.10476
H         -9.56706        5.91615       -1.66487
H         -8.80868        6.40578       -0.09990
H         -9.98432        5.03012       -0.14603
29

C          1.71549       -1.80809        0.62562
C          0.47815       -1.15220        0.11126
C          0.14975       -0.96398       -1.22572
C         -1.07994       -0.32171       -1.40374
C         -1.71440       -0.00500       -0.20580
C         -3.01540        0.66930       -0.07430
C         -3.92750        0.49060        0.96130
C         -5.08280        1.26930        0.82170
C         -5.08050        2.05710       -0.32520
C         -6.15010        2.97620       -0.74460
C         -6.14814        3.75162       -1.90053
C         -7.29873        4.53574       -2.04207
C         -8.19981        4.37560       -0.99643
C         -9.51083        5.07389       -0.85490
S         -7.57902        3.26338        0.10147
S         -3.64460        1.78940       -1.16260
S         -0.74785       -0.52199        1.07428
H          2.36387       -2.13498       -0.21502
H          1.43886       -2.69498        1.23245
H          2.27934       -1.09198        1.25848
H          0.77735       -1.28150       -2.04832
H         -1.48985       -0.09631       -2.38006
H         -3.76730       -0.17930        1.79570
H         -5.89320        1.25250        1.53890
H         -5.34304        3.75380       -2.62334
H         -7.46457        5.19869       -2.88123
H         -9.68608        5.75519       -1.71406
H         -9.51379        5.66834        0.08227
H        -10.32810        4.32428       -0.81612
29

C          1.42388       -2.33576        0.44634
C          0.34480       -1.39357        0.02965
C          0.35569       -0.59033       -1.10414
C         -0.79915        0.18752       -1.23689
C         -1.71440       -0.00500       -0.20580
C         -3.01540        0.66930       -0.07430
C         -3.92750        0.49060        0.96130
C         -5.08280        1.26930        0.82170
C         -5.08050        2.05710       -0.32520
C         -6.15010        2.97620       -0.74460
C         -5.97459        4.14705       -1.47655
C         -7.17237        4.82503       -1.73038
C         -8.28449        4.18615       -1.19562
C         -9.69647        4.65926       -1.29013
S         -7.79091        2.78223       -0.41256
S         -3.64460        1.78940       -1.16260
S         -1.08905       -1.14065        0.87092
H          2.26421       -2.31463       -0.27984
H          1.01617       -3.36667        0.49477
H          1.80470       -2.04451        1.44704
H          1.17131       -0.56685       -1.81519
H         -0.95702        0.86979       -2.06249
H         -3.76730       -0.17930        1.79570
H         -5.89320        1.25250        1.53890
H         -5.01290        4.50458       -1.82000
H         -7.22214        5.75259       -2.28566
H         -9.75305        5.61081       -1.85967
H        -10.09954        4.82608       -0.26966
H        -10.31079        3.89265       -1.80615
29

C          1.20032       -2.68175        0.00864
C          0.24249       -1.55199       -0.17022
C          0.51474       -0.34302       -0.79876
C         -0.58255        0.52408       -0.81972
C         -1.71440       -0.00500       -0.20580
C         -3.01540        0.66930       -0.07430
C         -3.92750        0.49060        0.96130
C         -5.08280        1.26930        0.82170
C         -5.08050        2.05710       -0.32520
C         -6.15010        2.97620       -0.74460
C         -5.97459        4.14705       -1.47655
C         -7.17237        4.82503       -1.73038
C         -8.28449        4.18615       -1.19562
C         -9.69647        4.65926       -1.29013
S         -7.79091        2.78223       -0.41256
S         -3.64460        1.78940       -1.16260
S         -1.35210       -1.54924        0.36356
H          2.18862       -2.43079       -0.43205
H          0.80188       -3.58731       -0.49389
H          1.33048       -2.89001        1.09074
H          1.47542       -0.09409       -1.23060
H         -0.54624        1.50785       -1.27016
H         -3.76730       -0.17930        1.79570
H         -5.89320        1.25250        1.53890
H         -5.01290        4.50458       -1.82000
H         -7.22214        5.75259       -2.28566
H         -9.75305        5.61081       -1.85967
H        -10.09954        4.82608       -0.26966
H        -10.31079        3.89265       -1.80615
29

C          1.42388       -2.33576        0.44634
C          0.34480       -1.39357        0.02965
C          0.35569       -0.59033       -1.10414
C         -0.79915        0.18752       -1.23689
C         -1.71440       -0.00500       -0.20580
C         -3.01540        0.66930       -0.07430
C         -3.92750        0.49060        0.96130
C         -5.08280        1.26930        0.82170
C         -5.08050        2.05710       -0.32520
C         -6.15010        2.97620       -0.74460
C         -6.47357        3.30060       -2.05897
C         -7.53677        4.20517       -2.15942
C         -8.04382        4.59008       -0.92423
C         -9.16940        5.54304       -0.69756
S         -7.18300        3.81142        0.29253
S         -3.64460        1.78940       -1.16260
S         -1.08905       -1.14065        0.87092
H          2.26421       -2.31463       -0.27984
H          1.01617       -3.36667        0.49477
H          1.80470       -2.04451        1.44704
H          1.17131       -0.56685       -1.81519
H         -0.95702        0.86979       -2.06249
H         -3.76730       -0.17930        1.79570
H         -5.89320        1.25250        1.53890
H         -5.96095        2.89814       -2.92263
H         -7.92039        4.56624       -3.10476
H         -9.56706        5.91615       -1.66487
H         -8.80868        6.40578       -0.09990
H         -9.98432        5.03012       -0.14603
29

C          1.42388       -2.33576        0.44634
C          0.34480       -1.39357        0.02965
C          0.35569       -0.59033       -1.10414
C         -0.79915        0.18752       -1.23689
C         -1.71440       -0.00500       -0.20580
C         -3.01540        0.66930       -0.07430
C         -3.92750        0.49060        0.96130
C         -5.08280        1.26930        0.82170
C         -5.08050        2.05710       -0.32520
C         -6.15010        2.97620       -0.74460
C         -6.14814        3.75162       -1.90053
C         -7.29873        4.53574       -2.04207
C         -8.19981        4.37560       -0.99643
C         -9.51083        5.07389       -0.85490
S         -7.57902        3.26338        0.10147
S         -3.64460        1.78940       -1.16260
S         -1.08905       -1.14065        0.87092
H          2.26421       -2.31463       -0.27984
H          1.01617       -3.36667        0.49477
H          1.80470       -2.04451        1.44704
H          1.17131       -0.56685       -1.81519
H         -0.95702        0.86979       -2.06249
H         -3.76730       -0.17930        1.79570
H         -5.89320        1.25250        1.53890
H         -5.34304        3.75380       -2.62334
H         -7.46457        5.19869       -2.88123
H         -9.68608        5.75519       -1.71406
H         -9.51379        5.66834        0.08227
H        -10.32810        4.32428       -0.81612
29

C          1.20032       -2.68175        0.00864
C          0.24249       -1.55199       -0.17022
C          0.51474       -0.34302       -0.79876
C         -0.58255        0.52408       -0.81972
C         -1.71440       -0.00500       -0.20580
C         -3.01540        0.66930       -0.07430
C         -3.92750        0.49060        0.96130
C         -5.08280        1.26930        0.82170
C         -5.08050        2.05710       -0.32520
C         -6.15010        2.97620       -0.74460
C         -6.14814        3.75162       -1.90053
C         -7.29873        4.53574       -2.04207
C         -8.19981        4.37560       -0.99643
C         -9.51083        5.07389       -0.85490
S         -7.57902        3.26338        0.10147
S         -3.64460        1.78940       -1.16260
S         -1.35210       -1.54924        0.36356
H          2.18862       -2.43079       -0.43205
H          0.80188       -3.58731       -0.49389
H          1.33048       -2.89001        1.09074
H          1.47542       -0.09409       -1.23060
H         -0.54624        1.50785       -1.27016
H         -3.76730       -0.17930        1.79570
H         -5.89320        1.25250        1.53890
H         -5.34304        3.75380       -2.62334
H         -7.46457        5.19869       -2.88123
H         -9.68608        5.75519       -1.71406
H         -9.51379        5.66834        0.08227
H        -10.32810        4.32428       -0.81612
29

C          1.83520       -1.15437       -1.54215
C          0.53225       -0.85447       -0.88022
C          0.07384       -1.40958        0.30826
C         -1.18530       -0.93272        0.68711
C         -1.71440       -0.00500       -0.20580
C         -3.01540        0.66930       -0.07430
C         -3.92750        0.49060        0.96130
C         -5.08280        1.26930        0.82170
C         -5.08050        2.05710       -0.32520
C         -6.15010        2.97620       -0.74460
C         -7.01690        3.65624        0.10607
C         -7.93835        4.46197       -0.57252
C         -7.79408        4.41097       -1.95365
C         -8.62477        5.14937       -2.94922
S         -6.52686        3.37458       -2.33817
S         -3.64460        1.78940       -1.16260
S         -0.61879        0.22240       -1.46597
H          2.41086       -1.90025       -0.95376
H          2.43180       -0.22227       -1.62335
H          1.65038       -1.56126       -2.55780
H          0.63119       -2.13569        0.88576
H         -1.69141       -1.25883        1.58684
H         -3.76730       -0.17930        1.79570
H         -5.89320        1.25250        1.53890
H         -6.98813        3.57703        1.18475
H         -8.68596        5.06068       -0.06874
H         -9.39337        5.76588       -2.43714
H         -9.13246        4.42364       -3.61796
H         -7.97439        5.81348       -3.55528
