
  xtb     02032211343D
 xtb: 6.4.1 (23d549d)
 24 24  0     0  0            999 V2000
   -5.9102    0.0204    0.0211 C   0  0  0  0  0  0  0  0  0  0  0  0
   -4.8261   -0.7474   -0.0008 C   0  0  0  0  0  0  0  0  0  0  0  0
   -3.4413   -0.3003   -0.0026 C   0  0  0  0  0  0  0  0  0  0  0  0
   -3.0698    1.0464    0.0066 C   0  0  0  0  0  0  0  0  0  0  0  0
   -1.7430    1.4128    0.0034 C   0  0  0  0  0  0  0  0  0  0  0  0
   -0.7200    0.4568   -0.0079 C   0  0  0  0  0  0  0  0  0  0  0  0
    0.6550    0.9039   -0.0105 C   0  0  0  0  0  0  0  0  0  0  0  0
    1.7539    0.1312   -0.0028 C   0  0  0  0  0  0  0  0  0  0  0  0
    3.0829    0.6774   -0.0066 C   0  0  0  0  0  0  0  0  0  0  0  0
    4.1834   -0.0668    0.0035 C   0  0  0  0  0  0  0  0  0  0  0  0
    4.2224   -1.3960    0.0189 F   0  0  0  0  0  0  0  0  0  0  0  0
    5.4231    0.4153   -0.0002 F   0  0  0  0  0  0  0  0  0  0  0  0
   -1.0928   -0.8914   -0.0172 C   0  0  0  0  0  0  0  0  0  0  0  0
   -2.4203   -1.2558   -0.0150 C   0  0  0  0  0  0  0  0  0  0  0  0
   -6.8977   -0.4079    0.0204 H   0  0  0  0  0  0  0  0  0  0  0  0
   -5.8649    1.0956    0.0412 H   0  0  0  0  0  0  0  0  0  0  0  0
   -4.9493   -1.8238   -0.0189 H   0  0  0  0  0  0  0  0  0  0  0  0
   -3.8281    1.8139    0.0152 H   0  0  0  0  0  0  0  0  0  0  0  0
   -1.4811    2.4617    0.0102 H   0  0  0  0  0  0  0  0  0  0  0  0
    0.7870    1.9796   -0.0182 H   0  0  0  0  0  0  0  0  0  0  0  0
    1.6839   -0.9462    0.0077 H   0  0  0  0  0  0  0  0  0  0  0  0
    3.2095    1.7489   -0.0187 H   0  0  0  0  0  0  0  0  0  0  0  0
   -0.3363   -1.6606   -0.0276 H   0  0  0  0  0  0  0  0  0  0  0  0
   -2.6826   -2.3047   -0.0229 H   0  0  0  0  0  0  0  0  0  0  0  0
  1  2  2  0  0  0  0
  2  3  1  0  0  0  0
  3  4  4  0  0  0  0
  4  5  4  0  0  0  0
  5  6  4  0  0  0  0
  6  7  1  0  0  0  0
  7  8  2  0  0  0  0
  8  9  1  0  0  0  0
  9 10  2  0  0  0  0
 10 11  1  0  0  0  0
 10 12  1  0  0  0  0
  6 13  4  0  0  0  0
  3 14  4  0  0  0  0
 13 14  4  0  0  0  0
  1 15  1  0  0  0  0
  1 16  1  0  0  0  0
  2 17  1  0  0  0  0
  4 18  1  0  0  0  0
  5 19  1  0  0  0  0
  7 20  1  0  0  0  0
  8 21  1  0  0  0  0
  9 22  1  0  0  0  0
 13 23  1  0  0  0  0
 14 24  1  0  0  0  0
M  END
