
  xtb     02032211353D
 xtb: 6.4.1 (23d549d)
 23 23  0     0  0            999 V2000
   -2.1438   -2.1481   -0.2125 C   0  0  0  0  0  0  0  0  0  0  0  0
   -2.0712   -0.8774    0.1671 C   0  0  0  0  0  0  0  0  0  0  0  0
   -0.8940   -0.0434    0.1001 C   0  0  0  0  0  0  0  0  0  0  0  0
   -0.8793    1.3654   -0.0186 C   0  0  0  0  0  0  0  0  0  0  0  0
   -2.0415    2.2900   -0.0841 C   0  0  0  0  0  0  0  0  0  0  0  0
    0.3633    1.8083   -0.0810 N   0  0  0  0  0  0  0  0  0  0  0  0
    1.1614    0.7440   -0.0144 N   0  0  0  0  0  0  0  0  0  0  0  0
    2.5800    0.9473    0.0152 C   0  0  0  0  0  0  0  0  0  0  0  0
    0.4574   -0.4113    0.1007 C   0  0  0  0  0  0  0  0  0  0  0  0
    1.0252   -1.7252    0.2872 C   0  0  0  0  0  0  0  0  0  0  0  0
    2.1714   -2.1798   -0.2080 C   0  0  0  0  0  0  0  0  0  0  0  0
   -3.0605   -2.7071   -0.1300 H   0  0  0  0  0  0  0  0  0  0  0  0
   -1.3025   -2.6680   -0.6382 H   0  0  0  0  0  0  0  0  0  0  0  0
   -2.9581   -0.3788    0.5396 H   0  0  0  0  0  0  0  0  0  0  0  0
   -2.6562    2.1936    0.8103 H   0  0  0  0  0  0  0  0  0  0  0  0
   -2.6619    2.0612   -0.9499 H   0  0  0  0  0  0  0  0  0  0  0  0
   -1.6830    3.3123   -0.1619 H   0  0  0  0  0  0  0  0  0  0  0  0
    2.7566    1.9766    0.3237 H   0  0  0  0  0  0  0  0  0  0  0  0
    3.0205    0.7993   -0.9739 H   0  0  0  0  0  0  0  0  0  0  0  0
    3.0446    0.2612    0.7237 H   0  0  0  0  0  0  0  0  0  0  0  0
    0.4072   -2.3805    0.8894 H   0  0  0  0  0  0  0  0  0  0  0  0
    2.8005   -1.5972   -0.8576 H   0  0  0  0  0  0  0  0  0  0  0  0
    2.5053   -3.1821   -0.0008 H   0  0  0  0  0  0  0  0  0  0  0  0
  1  2  2  0  0  0  0
  2  3  1  0  0  0  0
  3  4  4  0  0  0  0
  4  5  1  0  0  0  0
  4  6  4  0  0  0  0
  6  7  1  0  0  0  0
  7  8  1  0  0  0  0
  3  9  4  0  0  0  0
  7  9  4  0  0  0  0
  9 10  1  0  0  0  0
 10 11  2  0  0  0  0
  1 12  1  0  0  0  0
  1 13  1  0  0  0  0
  2 14  1  0  0  0  0
  5 15  1  0  0  0  0
  5 16  1  0  0  0  0
  5 17  1  0  0  0  0
  8 18  1  0  0  0  0
  8 19  1  0  0  0  0
  8 20  1  0  0  0  0
 10 21  1  0  0  0  0
 11 22  1  0  0  0  0
 11 23  1  0  0  0  0
M  END
