
 OpenBabel02032210513D

 24 25  0  0  0  0  0  0  0  0999 V2000
    1.3707   -0.5906    0.2343 C   0  0  0  0  0  0  0  0  0  0  0  0
    2.4843    0.0994   -0.0421 C   0  0  0  0  0  0  0  0  0  0  0  0
    3.1072    0.9632    0.9055 C   0  0  0  0  0  0  0  0  0  0  0  0
    2.7522    1.2965    2.2015 C   0  0  0  0  0  0  0  0  0  0  0  0
    3.6817    2.1745    2.8327 C   0  0  0  0  0  0  0  0  0  0  0  0
    4.7384    2.5068    2.0105 C   0  0  0  0  0  0  0  0  0  0  0  0
    5.8859    3.3221    2.3302 C   0  0  0  0  0  0  0  0  0  0  0  0
    6.5757    4.1768    1.4961 C   0  0  0  0  0  0  0  0  0  0  0  0
    7.7000    4.7788    2.1357 C   0  0  0  0  0  0  0  0  0  0  0  0
    7.8640    4.3767    3.4512 C   0  0  0  0  0  0  0  0  0  0  0  0
    8.8554    4.6972    4.4217 C   0  0  0  0  0  0  0  0  0  0  0  0
    9.9064    5.4915    4.1934 C   0  0  0  0  0  0  0  0  0  0  0  0
   10.1183    6.0788    2.9984 F   0  0  0  0  0  0  0  0  0  0  0  0
   10.7878    5.7070    5.1950 F   0  0  0  0  0  0  0  0  0  0  0  0
    6.5905    3.2982    3.8911 S   0  0  0  0  0  0  0  0  0  0  0  0
    4.5594    1.7823    0.4679 S   0  0  0  0  0  0  0  0  0  0  0  0
    0.9359   -1.2464   -0.5139 H   0  0  0  0  0  0  0  0  0  0  0  0
    0.8605   -0.5385    1.1897 H   0  0  0  0  0  0  0  0  0  0  0  0
    2.9379   -0.0140   -1.0243 H   0  0  0  0  0  0  0  0  0  0  0  0
    1.8674    0.9164    2.6964 H   0  0  0  0  0  0  0  0  0  0  0  0
    3.5745    2.5319    3.8496 H   0  0  0  0  0  0  0  0  0  0  0  0
    6.3000    4.3633    0.4649 H   0  0  0  0  0  0  0  0  0  0  0  0
    8.3640    5.4673    1.6272 H   0  0  0  0  0  0  0  0  0  0  0  0
    8.7707    4.2628    5.4150 H   0  0  0  0  0  0  0  0  0  0  0  0
  1  2  2  0  0  0  0
  1 17  1  0  0  0  0
  1 18  1  0  0  0  0
  2  3  1  0  0  0  0
  2 19  1  0  0  0  0
  3  4  2  0  0  0  0
  3 16  1  0  0  0  0
  4  5  1  0  0  0  0
  4 20  1  0  0  0  0
  5  6  2  0  0  0  0
  5 21  1  0  0  0  0
  6  7  1  0  0  0  0
  6 16  1  0  0  0  0
  7  8  2  0  0  0  0
  7 15  1  0  0  0  0
  8  9  1  0  0  0  0
  8 22  1  0  0  0  0
  9 10  2  0  0  0  0
  9 23  1  0  0  0  0
 10 11  1  0  0  0  0
 10 15  1  0  0  0  0
 11 12  2  0  0  0  0
 11 24  1  0  0  0  0
 12 13  1  0  0  0  0
 12 14  1  0  0  0  0
M  END
