
  xtb     02032211353D
 xtb: 6.4.1 (23d549d)
 32 32  0     0  0            999 V2000
   -3.3451    1.6978   -0.7576 C   0  0  0  0  0  0  0  0  0  0  0  0
   -2.3889    1.5307    0.1403 C   0  0  0  0  0  0  0  0  0  0  0  0
   -1.1932    0.6915   -0.0485 C   0  0  0  0  0  0  0  0  0  0  0  0
    0.0474    1.3151   -0.0241 C   0  0  0  0  0  0  0  0  0  0  0  0
    1.2418    0.6296   -0.1971 C   0  0  0  0  0  0  0  0  0  0  0  0
    2.5212    1.4205   -0.1824 C   0  0  0  0  0  0  0  0  0  0  0  0
    2.8943    1.8545    1.2365 C   0  0  0  0  0  0  0  0  0  0  0  0
    1.1886   -0.7522   -0.4030 C   0  0  0  0  0  0  0  0  0  0  0  0
    2.3587   -1.6114   -0.6126 C   0  0  0  0  0  0  0  0  0  0  0  0
    3.4813   -1.6083    0.0908 C   0  0  0  0  0  0  0  0  0  0  0  0
   -0.0602   -1.3734   -0.4368 C   0  0  0  0  0  0  0  0  0  0  0  0
   -1.2496   -0.6907   -0.2542 C   0  0  0  0  0  0  0  0  0  0  0  0
   -2.5429   -1.4558   -0.1939 C   0  0  0  0  0  0  0  0  0  0  0  0
   -2.9516   -1.6871    1.2619 C   0  0  0  0  0  0  0  0  0  0  0  0
   -4.1853    2.3482   -0.5805 H   0  0  0  0  0  0  0  0  0  0  0  0
   -3.3188    1.2024   -1.7146 H   0  0  0  0  0  0  0  0  0  0  0  0
   -2.4234    2.0793    1.0751 H   0  0  0  0  0  0  0  0  0  0  0  0
    0.0801    2.3873    0.1179 H   0  0  0  0  0  0  0  0  0  0  0  0
    2.3884    2.3157   -0.7962 H   0  0  0  0  0  0  0  0  0  0  0  0
    3.3319    0.8332   -0.6142 H   0  0  0  0  0  0  0  0  0  0  0  0
    2.1186    2.4909    1.6561 H   0  0  0  0  0  0  0  0  0  0  0  0
    3.8306    2.4085    1.2302 H   0  0  0  0  0  0  0  0  0  0  0  0
    3.0063    0.9909    1.8882 H   0  0  0  0  0  0  0  0  0  0  0  0
    2.2325   -2.3488   -1.3978 H   0  0  0  0  0  0  0  0  0  0  0  0
    3.6445   -0.9391    0.9172 H   0  0  0  0  0  0  0  0  0  0  0  0
    4.2787   -2.3010   -0.1221 H   0  0  0  0  0  0  0  0  0  0  0  0
   -0.0946   -2.4431   -0.5964 H   0  0  0  0  0  0  0  0  0  0  0  0
   -2.4179   -2.4197   -0.6911 H   0  0  0  0  0  0  0  0  0  0  0  0
   -3.3377   -0.9108   -0.7019 H   0  0  0  0  0  0  0  0  0  0  0  0
   -2.1697   -2.2240    1.7948 H   0  0  0  0  0  0  0  0  0  0  0  0
   -3.8698   -2.2681    1.3123 H   0  0  0  0  0  0  0  0  0  0  0  0
   -3.1164   -0.7347    1.7608 H   0  0  0  0  0  0  0  0  0  0  0  0
  1  2  2  0  0  0  0
  2  3  1  0  0  0  0
  3  4  4  0  0  0  0
  4  5  4  0  0  0  0
  5  6  1  0  0  0  0
  6  7  1  0  0  0  0
  5  8  4  0  0  0  0
  8  9  1  0  0  0  0
  9 10  2  0  0  0  0
  8 11  4  0  0  0  0
  3 12  4  0  0  0  0
 11 12  4  0  0  0  0
 12 13  1  0  0  0  0
 13 14  1  0  0  0  0
  1 15  1  0  0  0  0
  1 16  1  0  0  0  0
  2 17  1  0  0  0  0
  4 18  1  0  0  0  0
  6 19  1  0  0  0  0
  6 20  1  0  0  0  0
  7 21  1  0  0  0  0
  7 22  1  0  0  0  0
  7 23  1  0  0  0  0
  9 24  1  0  0  0  0
 10 25  1  0  0  0  0
 10 26  1  0  0  0  0
 11 27  1  0  0  0  0
 13 28  1  0  0  0  0
 13 29  1  0  0  0  0
 14 30  1  0  0  0  0
 14 31  1  0  0  0  0
 14 32  1  0  0  0  0
M  END
