30

C          1.06250       -0.03230       -0.01370
C          2.58810        0.03600       -0.01370
C          3.30290        1.27290       -0.01380
C          2.62970        2.52560       -0.01430
C          3.32680        3.72720       -0.01420
C          4.70780        3.72840       -0.01360
C          5.40700        2.52810       -0.01330
C          4.73610        1.27420       -0.01340
C          5.45310        0.03860       -0.01310
C          6.97880       -0.02700       -0.01300
C          4.73290       -1.18810       -0.01310
C          5.41190       -2.43680       -0.01280
C          4.71610       -3.64110       -0.01270
C          3.33170       -3.64240       -0.01300
C          2.63370       -2.43930       -0.01330
C          3.31050       -1.18940       -0.01340
H          0.51110        0.91590       -0.01360
H          0.71910       -0.57320        0.89350
H          0.71900       -0.57330       -0.92070
H          1.56280        2.63350       -0.01470
H          2.78850        4.66680       -0.01450
H          5.24450        4.66900       -0.01350
H          6.47370        2.63780       -0.01280
H          7.52850        0.92210       -0.01330
H          7.32330       -0.56760       -0.91980
H          7.32320       -0.56700        0.89430
H          6.48920       -2.51170       -0.01260
H          5.25630       -4.57940       -0.01250
H          2.79320       -4.58160       -0.01300
H          1.55660       -2.51620       -0.01350
