
  xtb     02032211353D
 xtb: 6.4.1 (23d549d)
 19 19  0     0  0            999 V2000
    3.5199    1.0657   -0.0520 C   0  0  0  0  0  0  0  0  0  0  0  0
    2.8945   -0.1027    0.0218 C   0  0  0  0  0  0  0  0  0  0  0  0
    1.4531   -0.3165    0.0126 C   0  0  0  0  0  0  0  0  0  0  0  0
    0.9551   -1.6213    0.0488 C   0  0  0  0  0  0  0  0  0  0  0  0
   -0.3329   -1.9104    0.0369 N   0  0  0  0  0  0  0  0  0  0  0  0
   -1.1850   -0.9185   -0.0082 C   0  0  0  0  0  0  0  0  0  0  0  0
   -2.4792   -1.2748   -0.0151 F   0  0  0  0  0  0  0  0  0  0  0  0
   -0.8491    0.4425   -0.0428 C   0  0  0  0  0  0  0  0  0  0  0  0
   -1.8926    1.4587   -0.0904 C   0  0  0  0  0  0  0  0  0  0  0  0
   -1.7182    2.7570    0.1211 C   0  0  0  0  0  0  0  0  0  0  0  0
    0.5154    0.7161   -0.0356 C   0  0  0  0  0  0  0  0  0  0  0  0
    4.5943    1.1246   -0.0393 H   0  0  0  0  0  0  0  0  0  0  0  0
    2.9992    2.0046   -0.1308 H   0  0  0  0  0  0  0  0  0  0  0  0
    3.4783   -1.0117    0.0946 H   0  0  0  0  0  0  0  0  0  0  0  0
    1.6198   -2.4738    0.0844 H   0  0  0  0  0  0  0  0  0  0  0  0
   -2.8838    1.0790   -0.2996 H   0  0  0  0  0  0  0  0  0  0  0  0
   -0.7597    3.1859    0.3597 H   0  0  0  0  0  0  0  0  0  0  0  0
   -2.5440    3.4450    0.0727 H   0  0  0  0  0  0  0  0  0  0  0  0
    0.8455    1.7415   -0.0779 H   0  0  0  0  0  0  0  0  0  0  0  0
  1  2  2  0  0  0  0
  2  3  1  0  0  0  0
  3  4  4  0  0  0  0
  4  5  4  0  0  0  0
  5  6  4  0  0  0  0
  6  7  1  0  0  0  0
  6  8  4  0  0  0  0
  8  9  1  0  0  0  0
  9 10  2  0  0  0  0
  3 11  4  0  0  0  0
  8 11  4  0  0  0  0
  1 12  1  0  0  0  0
  1 13  1  0  0  0  0
  2 14  1  0  0  0  0
  4 15  1  0  0  0  0
  9 16  1  0  0  0  0
 10 17  1  0  0  0  0
 10 18  1  0  0  0  0
 11 19  1  0  0  0  0
M  END
