
 OpenBabel02032211223D

 21 21  0  0  0  0  0  0  0  0999 V2000
    0.9582    0.4369   -0.1918 C   0  0  0  0  0  0  0  0  0  0  0  0
    2.2371    0.0792   -0.0104 C   0  0  0  0  0  0  0  0  0  0  0  0
    2.9762   -0.8132   -0.9133 C   0  0  0  0  0  0  0  0  0  0  0  0
    2.6969   -0.8855   -2.2833 C   0  0  0  0  0  0  0  0  0  0  0  0
    3.4058   -1.7712   -3.0878 C   0  0  0  0  0  0  0  0  0  0  0  0
    3.1363   -1.8838   -4.4205 O   0  0  0  0  0  0  0  0  0  0  0  0
    4.4055   -2.5783   -2.5544 C   0  0  0  0  0  0  0  0  0  0  0  0
    4.7327   -2.4926   -1.1960 C   0  0  0  0  0  0  0  0  0  0  0  0
    5.7714   -3.3854   -0.6588 C   0  0  0  0  0  0  0  0  0  0  0  0
    6.5732   -3.1074    0.3764 C   0  0  0  0  0  0  0  0  0  0  0  0
    4.0066   -1.6075   -0.3843 C   0  0  0  0  0  0  0  0  0  0  0  0
    0.4574    1.0798    0.5248 H   0  0  0  0  0  0  0  0  0  0  0  0
    0.3668    0.0886   -1.0334 H   0  0  0  0  0  0  0  0  0  0  0  0
    2.7681    0.4305    0.8715 H   0  0  0  0  0  0  0  0  0  0  0  0
    1.9311   -0.2533   -2.7191 H   0  0  0  0  0  0  0  0  0  0  0  0
    2.4123   -1.2738   -4.6450 H   0  0  0  0  0  0  0  0  0  0  0  0
    4.9315   -3.2672   -3.2117 H   0  0  0  0  0  0  0  0  0  0  0  0
    5.8891   -4.3379   -1.1714 H   0  0  0  0  0  0  0  0  0  0  0  0
    6.5305   -2.1678    0.9201 H   0  0  0  0  0  0  0  0  0  0  0  0
    7.3193   -3.8275    0.6971 H   0  0  0  0  0  0  0  0  0  0  0  0
    4.2237   -1.5552    0.6808 H   0  0  0  0  0  0  0  0  0  0  0  0
  1  2  2  0  0  0  0
  1 12  1  0  0  0  0
  1 13  1  0  0  0  0
  2  3  1  0  0  0  0
  2 14  1  0  0  0  0
  3  4  1  0  0  0  0
  3 11  2  0  0  0  0
  4  5  2  0  0  0  0
  4 15  1  0  0  0  0
  5  6  1  0  0  0  0
  5  7  1  0  0  0  0
  6 16  1  0  0  0  0
  7  8  2  0  0  0  0
  7 17  1  0  0  0  0
  8  9  1  0  0  0  0
  8 11  1  0  0  0  0
  9 10  2  0  0  0  0
  9 18  1  0  0  0  0
 10 19  1  0  0  0  0
 10 20  1  0  0  0  0
 11 21  1  0  0  0  0
M  END
