
  xtb     02012213543D
 xtb: 6.4.1 (23d549d)
 24 24  0     0  0            999 V2000
    2.8840   -0.4839    0.0186 c   0  0  0  0  0  0  0  0  0  0  0  0
    1.3847   -0.4720    0.0081 c   0  0  0  0  0  0  0  0  0  0  0  0
    0.6853   -1.6679    0.0043 c   0  0  0  0  0  0  0  0  0  0  0  0
   -0.6947   -1.6722   -0.0050 c   0  0  0  0  0  0  0  0  0  0  0  0
   -1.4128   -0.4854   -0.0115 c   0  0  0  0  0  0  0  0  0  0  0  0
   -2.9144   -0.5508   -0.0213 c   0  0  0  0  0  0  0  0  0  0  0  0
   -0.7211    0.7298   -0.0085 c   0  0  0  0  0  0  0  0  0  0  0  0
   -1.4739    2.0338   -0.0169 c   0  0  0  0  0  0  0  0  0  0  0  0
    0.6767    0.7335    0.0020 c   0  0  0  0  0  0  0  0  0  0  0  0
    1.4647    2.0132    0.0074 c   0  0  0  0  0  0  0  0  0  0  0  0
    3.2573   -1.5049    0.0210 h   0  0  0  0  0  0  0  0  0  0  0  0
    3.2695    0.0262    0.9013 h   0  0  0  0  0  0  0  0  0  0  0  0
    3.2817    0.0265   -0.8585 h   0  0  0  0  0  0  0  0  0  0  0  0
    1.2253   -2.6041    0.0088 h   0  0  0  0  0  0  0  0  0  0  0  0
   -1.2247   -2.6142   -0.0074 h   0  0  0  0  0  0  0  0  0  0  0  0
   -3.2426   -1.5874   -0.0205 h   0  0  0  0  0  0  0  0  0  0  0  0
   -3.3217   -0.0678   -0.9093 h   0  0  0  0  0  0  0  0  0  0  0  0
   -3.3333   -0.0626    0.8583 h   0  0  0  0  0  0  0  0  0  0  0  0
   -2.5457    1.8747   -0.0271 h   0  0  0  0  0  0  0  0  0  0  0  0
   -1.2133    2.6190   -0.8984 h   0  0  0  0  0  0  0  0  0  0  0  0
   -1.2304    2.6209    0.8683 h   0  0  0  0  0  0  0  0  0  0  0  0
    0.8309    2.8916    0.0033 h   0  0  0  0  0  0  0  0  0  0  0  0
    2.1138    2.0570   -0.8671 h   0  0  0  0  0  0  0  0  0  0  0  0
    2.1015    2.0566    0.8910 h   0  0  0  0  0  0  0  0  0  0  0  0
  1  2  1  0  0  0  0
  2  3  4  0  0  0  0
  3  4  4  0  0  0  0
  4  5  4  0  0  0  0
  5  6  1  0  0  0  0
  5  7  4  0  0  0  0
  7  8  1  0  0  0  0
  2  9  4  0  0  0  0
  7  9  4  0  0  0  0
  9 10  1  0  0  0  0
  1 11  1  0  0  0  0
  1 12  1  0  0  0  0
  1 13  1  0  0  0  0
  3 14  1  0  0  0  0
  4 15  1  0  0  0  0
  6 16  1  0  0  0  0
  6 17  1  0  0  0  0
  6 18  1  0  0  0  0
  8 19  1  0  0  0  0
  8 20  1  0  0  0  0
  8 21  1  0  0  0  0
 10 22  1  0  0  0  0
 10 23  1  0  0  0  0
 10 24  1  0  0  0  0
M  END
