
  xtb     02032211353D
 xtb: 6.4.1 (23d549d)
 19 19  0     0  0            999 V2000
   -2.7508    0.9003    0.4576 C   0  0  0  0  0  0  0  0  0  0  0  0
   -2.2061   -0.1431   -0.1525 C   0  0  0  0  0  0  0  0  0  0  0  0
   -0.8005   -0.5025   -0.1266 C   0  0  0  0  0  0  0  0  0  0  0  0
   -0.4853   -1.7861   -0.2193 N   0  0  0  0  0  0  0  0  0  0  0  0
    0.8464   -1.8572   -0.0881 N   0  0  0  0  0  0  0  0  0  0  0  0
    1.4055   -0.6411    0.0963 C   0  0  0  0  0  0  0  0  0  0  0  0
    2.7567   -0.4791    0.3207 N   0  0  0  0  0  0  0  0  0  0  0  0
    0.3702    0.2895    0.0649 C   0  0  0  0  0  0  0  0  0  0  0  0
    0.5656    1.7244    0.1326 C   0  0  0  0  0  0  0  0  0  0  0  0
   -0.1698    2.6401   -0.4847 C   0  0  0  0  0  0  0  0  0  0  0  0
   -3.8127    1.0762    0.4254 H   0  0  0  0  0  0  0  0  0  0  0  0
   -2.1615    1.6094    1.0132 H   0  0  0  0  0  0  0  0  0  0  0  0
   -2.8264   -0.8655   -0.6667 H   0  0  0  0  0  0  0  0  0  0  0  0
    1.3042   -2.7542   -0.0907 H   0  0  0  0  0  0  0  0  0  0  0  0
    3.3477   -1.1877   -0.0881 H   0  0  0  0  0  0  0  0  0  0  0  0
    3.0894    0.4568    0.1460 H   0  0  0  0  0  0  0  0  0  0  0  0
    1.4277    2.0358    0.7138 H   0  0  0  0  0  0  0  0  0  0  0  0
   -1.0188    2.3724   -1.0896 H   0  0  0  0  0  0  0  0  0  0  0  0
    0.0535    3.6901   -0.4011 H   0  0  0  0  0  0  0  0  0  0  0  0
  1  2  2  0  0  0  0
  2  3  1  0  0  0  0
  3  4  4  0  0  0  0
  4  5  1  0  0  0  0
  5  6  4  0  0  0  0
  6  7  1  0  0  0  0
  3  8  4  0  0  0  0
  6  8  4  0  0  0  0
  8  9  1  0  0  0  0
  9 10  2  0  0  0  0
  1 11  1  0  0  0  0
  1 12  1  0  0  0  0
  2 13  1  0  0  0  0
  5 14  1  0  0  0  0
  7 15  1  0  0  0  0
  7 16  1  0  0  0  0
  9 17  1  0  0  0  0
 10 18  1  0  0  0  0
 10 19  1  0  0  0  0
M  END
