
 OpenBabel02012213463D

 22 22  0  0  0  0  0  0  0  0999 V2000
    1.0087   -0.3776   -0.1179 C   0  0  0  0  0  0  0  0  0  0  0  0
    2.5009   -0.3552   -0.1833 C   0  0  0  0  0  0  0  0  0  0  0  0
    3.2993   -0.5134    0.8871 C   0  0  0  0  0  0  0  0  0  0  0  0
    4.7722   -0.4853    0.8398 C   0  0  0  0  0  0  0  0  0  0  0  0
    5.5090   -1.2297    1.7716 C   0  0  0  0  0  0  0  0  0  0  0  0
    6.9081   -1.1996    1.7640 C   0  0  0  0  0  0  0  0  0  0  0  0
    7.5898   -0.4188    0.8312 C   0  0  0  0  0  0  0  0  0  0  0  0
    6.8751    0.3447   -0.0986 C   0  0  0  0  0  0  0  0  0  0  0  0
    7.5703    1.1951   -1.1182 C   0  0  0  0  0  0  0  0  0  0  0  0
    5.4728    0.3101   -0.0772 C   0  0  0  0  0  0  0  0  0  0  0  0
    0.5952   -0.1809   -1.1142 H   0  0  0  0  0  0  0  0  0  0  0  0
    0.6301    0.3985    0.5544 H   0  0  0  0  0  0  0  0  0  0  0  0
    0.6408   -1.3558    0.2059 H   0  0  0  0  0  0  0  0  0  0  0  0
    2.9247   -0.2084   -1.1725 H   0  0  0  0  0  0  0  0  0  0  0  0
    2.8586   -0.6871    1.8661 H   0  0  0  0  0  0  0  0  0  0  0  0
    5.0019   -1.8492    2.5064 H   0  0  0  0  0  0  0  0  0  0  0  0
    7.4655   -1.7889    2.4878 H   0  0  0  0  0  0  0  0  0  0  0  0
    8.6771   -0.4081    0.8359 H   0  0  0  0  0  0  0  0  0  0  0  0
    8.6595    1.1412   -1.0213 H   0  0  0  0  0  0  0  0  0  0  0  0
    7.2712    2.2418   -1.0000 H   0  0  0  0  0  0  0  0  0  0  0  0
    7.3037    0.8595   -2.1261 H   0  0  0  0  0  0  0  0  0  0  0  0
    4.9294    0.9252   -0.7908 H   0  0  0  0  0  0  0  0  0  0  0  0
  1  2  1  0  0  0  0
  1 11  1  0  0  0  0
  1 12  1  0  0  0  0
  1 13  1  0  0  0  0
  2  3  2  0  0  0  0
  2 14  1  0  0  0  0
  3  4  1  0  0  0  0
  3 15  1  0  0  0  0
  4  5  1  0  0  0  0
  4 10  2  0  0  0  0
  5  6  2  0  0  0  0
  5 16  1  0  0  0  0
  6  7  1  0  0  0  0
  6 17  1  0  0  0  0
  7  8  2  0  0  0  0
  7 18  1  0  0  0  0
  8  9  1  0  0  0  0
  8 10  1  0  0  0  0
  9 19  1  0  0  0  0
  9 20  1  0  0  0  0
  9 21  1  0  0  0  0
 10 22  1  0  0  0  0
M  END
