36

F          0.82025       -1.45486        0.92898
C          2.15631       -1.53940        1.16184
F          2.56081       -2.11623        2.31985
C          3.00640       -1.04160        0.24660
C          4.50030       -1.02620        0.30830
C          5.26050        0.03530        0.87490
C          6.66160       -0.02090        0.90900
C          5.18160       -2.14430       -0.23140
C          6.58470       -2.17220       -0.21210
C          7.28770       -1.13500        0.36270
C          8.61730       -1.45560        0.26710
C          9.75320       -0.75990        0.67960
C         11.00570       -1.33680        0.42090
C         11.09590       -2.57600       -0.24390
C          9.93480       -3.25890       -0.64900
C          8.68580       -2.68140       -0.36750
N          7.43460       -3.14020       -0.67120
C          7.08830       -4.37890       -1.34410
C          7.95949       -4.95848       -2.28900
C          7.62126       -6.15009       -2.93765
C          6.40898       -6.78086       -2.65777
C          5.53340       -6.22196       -1.72705
C          5.86836       -5.03250       -1.07359
H          2.54868       -0.59415       -0.63227
H          4.80250        0.90740        1.30550
H          7.23510        0.78360        1.35110
H          4.61050       -2.96220       -0.64140
H          9.67750        0.19750        1.17820
H         11.90790       -0.82190        0.72440
H         12.06870       -3.00340       -0.44990
H         10.04040       -4.19390       -1.17510
H          8.91682       -4.51134       -2.51231
H          8.30296       -6.58665       -3.65625
H          6.14797       -7.70217       -3.16232
H          4.58976       -6.70786       -1.51453
H          5.15343       -4.61480       -0.38015
36

F          0.87621       -0.68238       -0.61881
C          2.22497       -0.57236       -0.74199
F          2.71206       -0.00043       -1.87026
C          3.00640       -1.04160        0.24660
C          4.50030       -1.02620        0.30830
C          5.26050        0.03530        0.87490
C          6.66160       -0.02090        0.90900
C          5.18160       -2.14430       -0.23140
C          6.58470       -2.17220       -0.21210
C          7.28770       -1.13500        0.36270
C          8.61730       -1.45560        0.26710
C          9.75320       -0.75990        0.67960
C         11.00570       -1.33680        0.42090
C         11.09590       -2.57600       -0.24390
C          9.93480       -3.25890       -0.64900
C          8.68580       -2.68140       -0.36750
N          7.43460       -3.14020       -0.67120
C          7.08830       -4.37890       -1.34410
C          7.95949       -4.95848       -2.28900
C          7.62126       -6.15009       -2.93765
C          6.40898       -6.78086       -2.65777
C          5.53340       -6.22196       -1.72705
C          5.86836       -5.03250       -1.07359
H          2.48674       -1.48851        1.09062
H          4.80250        0.90740        1.30550
H          7.23510        0.78360        1.35110
H          4.61050       -2.96220       -0.64140
H          9.67750        0.19750        1.17820
H         11.90790       -0.82190        0.72440
H         12.06870       -3.00340       -0.44990
H         10.04040       -4.19390       -1.17510
H          8.91682       -4.51134       -2.51231
H          8.30296       -6.58665       -3.65625
H          6.14797       -7.70217       -3.16232
H          4.58976       -6.70786       -1.51453
H          5.15343       -4.61480       -0.38015
36

F          0.82025       -1.45486        0.92898
C          2.15631       -1.53940        1.16184
F          2.56081       -2.11623        2.31985
C          3.00640       -1.04160        0.24660
C          4.50030       -1.02620        0.30830
C          5.26050        0.03530        0.87490
C          6.66160       -0.02090        0.90900
C          5.18160       -2.14430       -0.23140
C          6.58470       -2.17220       -0.21210
C          7.28770       -1.13500        0.36270
C          8.61730       -1.45560        0.26710
C          9.75320       -0.75990        0.67960
C         11.00570       -1.33680        0.42090
C         11.09590       -2.57600       -0.24390
C          9.93480       -3.25890       -0.64900
C          8.68580       -2.68140       -0.36750
N          7.43460       -3.14020       -0.67120
C          7.08830       -4.37890       -1.34410
C          5.92773       -4.47185       -2.13918
C          5.59550       -5.66758       -2.78334
C          6.41201       -6.78980       -2.64287
C          7.56357       -6.71769       -1.85930
C          7.90172       -5.52369       -1.21584
H          2.54868       -0.59415       -0.63227
H          4.80250        0.90740        1.30550
H          7.23510        0.78360        1.35110
H          4.61050       -2.96220       -0.64140
H          9.67750        0.19750        1.17820
H         11.90790       -0.82190        0.72440
H         12.06870       -3.00340       -0.44990
H         10.04040       -4.19390       -1.17510
H          5.28575       -3.61672       -2.29048
H          4.70453       -5.72224       -3.39561
H          6.15220       -7.71512       -3.14066
H          8.19383       -7.59028       -1.74493
H          8.78550       -5.51342       -0.59514
36

F          0.82025       -1.45486        0.92898
C          2.15631       -1.53940        1.16184
F          2.56081       -2.11623        2.31985
C          3.00640       -1.04160        0.24660
C          4.50030       -1.02620        0.30830
C          5.26050        0.03530        0.87490
C          6.66160       -0.02090        0.90900
C          5.18160       -2.14430       -0.23140
C          6.58470       -2.17220       -0.21210
C          7.28770       -1.13500        0.36270
C          8.61730       -1.45560        0.26710
C          9.75320       -0.75990        0.67960
C         11.00570       -1.33680        0.42090
C         11.09590       -2.57600       -0.24390
C          9.93480       -3.25890       -0.64900
C          8.68580       -2.68140       -0.36750
N          7.43460       -3.14020       -0.67120
C          7.08830       -4.37890       -1.34410
C          5.74273       -4.71295       -1.60015
C          5.41260       -5.90851       -2.24571
C          6.41706       -6.79111       -2.64306
C          7.75392       -6.47870       -2.39720
C          8.08928       -5.28325       -1.75497
H          2.54868       -0.59415       -0.63227
H          4.80250        0.90740        1.30550
H          7.23510        0.78360        1.35110
H          4.61050       -2.96220       -0.64140
H          9.67750        0.19750        1.17820
H         11.90790       -0.82190        0.72440
H         12.06870       -3.00340       -0.44990
H         10.04040       -4.19390       -1.17510
H          4.94066       -4.04254       -1.32902
H          4.37539       -6.14872       -2.44114
H          6.15951       -7.71704       -3.14089
H          8.53314       -7.16650       -2.69966
H          9.13286       -5.08824       -1.55659
36

F          0.87621       -0.68238       -0.61881
C          2.22497       -0.57236       -0.74199
F          2.71206       -0.00043       -1.87026
C          3.00640       -1.04160        0.24660
C          4.50030       -1.02620        0.30830
C          5.26050        0.03530        0.87490
C          6.66160       -0.02090        0.90900
C          5.18160       -2.14430       -0.23140
C          6.58470       -2.17220       -0.21210
C          7.28770       -1.13500        0.36270
C          8.61730       -1.45560        0.26710
C          9.75320       -0.75990        0.67960
C         11.00570       -1.33680        0.42090
C         11.09590       -2.57600       -0.24390
C          9.93480       -3.25890       -0.64900
C          8.68580       -2.68140       -0.36750
N          7.43460       -3.14020       -0.67120
C          7.08830       -4.37890       -1.34410
C          5.74273       -4.71295       -1.60015
C          5.41260       -5.90851       -2.24571
C          6.41706       -6.79111       -2.64306
C          7.75392       -6.47870       -2.39720
C          8.08928       -5.28325       -1.75497
H          2.48674       -1.48851        1.09062
H          4.80250        0.90740        1.30550
H          7.23510        0.78360        1.35110
H          4.61050       -2.96220       -0.64140
H          9.67750        0.19750        1.17820
H         11.90790       -0.82190        0.72440
H         12.06870       -3.00340       -0.44990
H         10.04040       -4.19390       -1.17510
H          4.94066       -4.04254       -1.32902
H          4.37539       -6.14872       -2.44114
H          6.15951       -7.71704       -3.14089
H          8.53314       -7.16650       -2.69966
H          9.13286       -5.08824       -1.55659
36

F          0.87621       -0.68238       -0.61881
C          2.22497       -0.57236       -0.74199
F          2.71206       -0.00043       -1.87026
C          3.00640       -1.04160        0.24660
C          4.50030       -1.02620        0.30830
C          5.26050        0.03530        0.87490
C          6.66160       -0.02090        0.90900
C          5.18160       -2.14430       -0.23140
C          6.58470       -2.17220       -0.21210
C          7.28770       -1.13500        0.36270
C          8.61730       -1.45560        0.26710
C          9.75320       -0.75990        0.67960
C         11.00570       -1.33680        0.42090
C         11.09590       -2.57600       -0.24390
C          9.93480       -3.25890       -0.64900
C          8.68580       -2.68140       -0.36750
N          7.43460       -3.14020       -0.67120
C          7.08830       -4.37890       -1.34410
C          5.92773       -4.47185       -2.13918
C          5.59550       -5.66758       -2.78334
C          6.41201       -6.78980       -2.64287
C          7.56357       -6.71769       -1.85930
C          7.90172       -5.52369       -1.21584
H          2.48674       -1.48851        1.09062
H          4.80250        0.90740        1.30550
H          7.23510        0.78360        1.35110
H          4.61050       -2.96220       -0.64140
H          9.67750        0.19750        1.17820
H         11.90790       -0.82190        0.72440
H         12.06870       -3.00340       -0.44990
H         10.04040       -4.19390       -1.17510
H          5.28575       -3.61672       -2.29048
H          4.70453       -5.72224       -3.39561
H          6.15220       -7.71512       -3.14066
H          8.19383       -7.59028       -1.74493
H          8.78550       -5.51342       -0.59514
36

F          0.88285       -1.53689       -0.56637
C          2.23349       -1.62760       -0.68470
F          2.73054       -2.31980       -1.73881
C          3.00640       -1.04160        0.24660
C          4.50030       -1.02620        0.30830
C          5.26050        0.03530        0.87490
C          6.66160       -0.02090        0.90900
C          5.18160       -2.14430       -0.23140
C          6.58470       -2.17220       -0.21210
C          7.28770       -1.13500        0.36270
C          8.61730       -1.45560        0.26710
C          9.75320       -0.75990        0.67960
C         11.00570       -1.33680        0.42090
C         11.09590       -2.57600       -0.24390
C          9.93480       -3.25890       -0.64900
C          8.68580       -2.68140       -0.36750
N          7.43460       -3.14020       -0.67120
C          7.08830       -4.37890       -1.34410
C          5.92773       -4.47185       -2.13918
C          5.59550       -5.66758       -2.78334
C          6.41201       -6.78980       -2.64287
C          7.56357       -6.71769       -1.85930
C          7.90172       -5.52369       -1.21584
H          2.47865       -0.52880        1.04701
H          4.80250        0.90740        1.30550
H          7.23510        0.78360        1.35110
H          4.61050       -2.96220       -0.64140
H          9.67750        0.19750        1.17820
H         11.90790       -0.82190        0.72440
H         12.06870       -3.00340       -0.44990
H         10.04040       -4.19390       -1.17510
H          5.28575       -3.61672       -2.29048
H          4.70453       -5.72224       -3.39561
H          6.15220       -7.71512       -3.14066
H          8.19383       -7.59028       -1.74493
H          8.78550       -5.51342       -0.59514
36

F          0.88285       -1.53689       -0.56637
C          2.23349       -1.62760       -0.68470
F          2.73054       -2.31980       -1.73881
C          3.00640       -1.04160        0.24660
C          4.50030       -1.02620        0.30830
C          5.26050        0.03530        0.87490
C          6.66160       -0.02090        0.90900
C          5.18160       -2.14430       -0.23140
C          6.58470       -2.17220       -0.21210
C          7.28770       -1.13500        0.36270
C          8.61730       -1.45560        0.26710
C          9.75320       -0.75990        0.67960
C         11.00570       -1.33680        0.42090
C         11.09590       -2.57600       -0.24390
C          9.93480       -3.25890       -0.64900
C          8.68580       -2.68140       -0.36750
N          7.43460       -3.14020       -0.67120
C          7.08830       -4.37890       -1.34410
C          5.74273       -4.71295       -1.60015
C          5.41260       -5.90851       -2.24571
C          6.41706       -6.79111       -2.64306
C          7.75392       -6.47870       -2.39720
C          8.08928       -5.28325       -1.75497
H          2.47865       -0.52880        1.04701
H          4.80250        0.90740        1.30550
H          7.23510        0.78360        1.35110
H          4.61050       -2.96220       -0.64140
H          9.67750        0.19750        1.17820
H         11.90790       -0.82190        0.72440
H         12.06870       -3.00340       -0.44990
H         10.04040       -4.19390       -1.17510
H          4.94066       -4.04254       -1.32902
H          4.37539       -6.14872       -2.44114
H          6.15951       -7.71704       -3.14089
H          8.53314       -7.16650       -2.69966
H          9.13286       -5.08824       -1.55659
36

F          0.88285       -1.53689       -0.56637
C          2.23349       -1.62760       -0.68470
F          2.73054       -2.31980       -1.73881
C          3.00640       -1.04160        0.24660
C          4.50030       -1.02620        0.30830
C          5.26050        0.03530        0.87490
C          6.66160       -0.02090        0.90900
C          5.18160       -2.14430       -0.23140
C          6.58470       -2.17220       -0.21210
C          7.28770       -1.13500        0.36270
C          8.61730       -1.45560        0.26710
C          9.75320       -0.75990        0.67960
C         11.00570       -1.33680        0.42090
C         11.09590       -2.57600       -0.24390
C          9.93480       -3.25890       -0.64900
C          8.68580       -2.68140       -0.36750
N          7.43460       -3.14020       -0.67120
C          7.08830       -4.37890       -1.34410
C          7.95949       -4.95848       -2.28900
C          7.62126       -6.15009       -2.93765
C          6.40898       -6.78086       -2.65777
C          5.53340       -6.22196       -1.72705
C          5.86836       -5.03250       -1.07359
H          2.47865       -0.52880        1.04701
H          4.80250        0.90740        1.30550
H          7.23510        0.78360        1.35110
H          4.61050       -2.96220       -0.64140
H          9.67750        0.19750        1.17820
H         11.90790       -0.82190        0.72440
H         12.06870       -3.00340       -0.44990
H         10.04040       -4.19390       -1.17510
H          8.91682       -4.51134       -2.51231
H          8.30296       -6.58665       -3.65625
H          6.14797       -7.70217       -3.16232
H          4.58976       -6.70786       -1.51453
H          5.15343       -4.61480       -0.38015
36

F          0.85457       -1.92725        0.21578
C          2.19879       -2.11628        0.27737
F          2.65411       -3.38899        0.37860
C          3.00640       -1.04160        0.24660
C          4.50030       -1.02620        0.30830
C          5.26050        0.03530        0.87490
C          6.66160       -0.02090        0.90900
C          5.18160       -2.14430       -0.23140
C          6.58470       -2.17220       -0.21210
C          7.28770       -1.13500        0.36270
C          8.61730       -1.45560        0.26710
C          9.75320       -0.75990        0.67960
C         11.00570       -1.33680        0.42090
C         11.09590       -2.57600       -0.24390
C          9.93480       -3.25890       -0.64900
C          8.68580       -2.68140       -0.36750
N          7.43460       -3.14020       -0.67120
C          7.08830       -4.37890       -1.34410
C          7.95949       -4.95848       -2.28900
C          7.62126       -6.15009       -2.93765
C          6.40898       -6.78086       -2.65777
C          5.53340       -6.22196       -1.72705
C          5.86836       -5.03250       -1.07359
H          2.50995       -0.07685        0.17637
H          4.80250        0.90740        1.30550
H          7.23510        0.78360        1.35110
H          4.61050       -2.96220       -0.64140
H          9.67750        0.19750        1.17820
H         11.90790       -0.82190        0.72440
H         12.06870       -3.00340       -0.44990
H         10.04040       -4.19390       -1.17510
H          8.91682       -4.51134       -2.51231
H          8.30296       -6.58665       -3.65625
H          6.14797       -7.70217       -3.16232
H          4.58976       -6.70786       -1.51453
H          5.15343       -4.61480       -0.38015
