
  xtb     02032211353D
 xtb: 6.4.1 (23d549d)
 30 31  0     0  0            999 V2000
   -1.3599   -2.6538    1.3726 C   0  0  0  0  0  0  0  0  0  0  0  0
   -0.8783   -1.4250    1.2434 C   0  0  0  0  0  0  0  0  0  0  0  0
   -1.5144   -0.3458    0.4906 C   0  0  0  0  0  0  0  0  0  0  0  0
   -2.8987   -0.2903    0.3388 C   0  0  0  0  0  0  0  0  0  0  0  0
   -3.5029    0.7505   -0.3393 C   0  0  0  0  0  0  0  0  0  0  0  0
   -2.7308    1.7698   -0.8723 C   0  0  0  0  0  0  0  0  0  0  0  0
   -1.3565    1.7356   -0.7246 C   0  0  0  0  0  0  0  0  0  0  0  0
   -0.7362    0.6857   -0.0575 C   0  0  0  0  0  0  0  0  0  0  0  0
    0.7359    0.6859    0.0572 C   0  0  0  0  0  0  0  0  0  0  0  0
    1.3559    1.7373    0.7222 C   0  0  0  0  0  0  0  0  0  0  0  0
    2.7301    1.7721    0.8703 C   0  0  0  0  0  0  0  0  0  0  0  0
    3.5025    0.7515    0.3401 C   0  0  0  0  0  0  0  0  0  0  0  0
    2.8987   -0.2908   -0.3361 C   0  0  0  0  0  0  0  0  0  0  0  0
    1.5144   -0.3466   -0.4888 C   0  0  0  0  0  0  0  0  0  0  0  0
    0.8784   -1.4261   -1.2412 C   0  0  0  0  0  0  0  0  0  0  0  0
    1.3619   -2.6537   -1.3749 C   0  0  0  0  0  0  0  0  0  0  0  0
   -0.8447   -3.4023    1.9494 H   0  0  0  0  0  0  0  0  0  0  0  0
   -2.2729   -2.9681    0.8952 H   0  0  0  0  0  0  0  0  0  0  0  0
    0.0642   -1.1700    1.7117 H   0  0  0  0  0  0  0  0  0  0  0  0
   -3.5076   -1.0656    0.7791 H   0  0  0  0  0  0  0  0  0  0  0  0
   -4.5777    0.7731   -0.4452 H   0  0  0  0  0  0  0  0  0  0  0  0
   -3.1981    2.5890   -1.3987 H   0  0  0  0  0  0  0  0  0  0  0  0
   -0.7456    2.5229   -1.1435 H   0  0  0  0  0  0  0  0  0  0  0  0
    0.7448    2.5256    1.1391 H   0  0  0  0  0  0  0  0  0  0  0  0
    3.1971    2.5926    1.3948 H   0  0  0  0  0  0  0  0  0  0  0  0
    4.5772    0.7743    0.4467 H   0  0  0  0  0  0  0  0  0  0  0  0
    3.5079   -1.0670   -0.7743 H   0  0  0  0  0  0  0  0  0  0  0  0
   -0.0660   -1.1721   -1.7060 H   0  0  0  0  0  0  0  0  0  0  0  0
    2.2771   -2.9680   -0.9017 H   0  0  0  0  0  0  0  0  0  0  0  0
    0.8459   -3.4016   -1.9519 H   0  0  0  0  0  0  0  0  0  0  0  0
  1  2  2  0  0  0  0
  2  3  1  0  0  0  0
  3  4  4  0  0  0  0
  4  5  4  0  0  0  0
  5  6  4  0  0  0  0
  6  7  4  0  0  0  0
  3  8  4  0  0  0  0
  7  8  4  0  0  0  0
  8  9  1  0  0  0  0
  9 10  4  0  0  0  0
 10 11  4  0  0  0  0
 11 12  4  0  0  0  0
 12 13  4  0  0  0  0
  9 14  4  0  0  0  0
 13 14  4  0  0  0  0
 14 15  1  0  0  0  0
 15 16  2  0  0  0  0
  1 17  1  0  0  0  0
  1 18  1  0  0  0  0
  2 19  1  0  0  0  0
  4 20  1  0  0  0  0
  5 21  1  0  0  0  0
  6 22  1  0  0  0  0
  7 23  1  0  0  0  0
 10 24  1  0  0  0  0
 11 25  1  0  0  0  0
 12 26  1  0  0  0  0
 13 27  1  0  0  0  0
 15 28  1  0  0  0  0
 16 29  1  0  0  0  0
 16 30  1  0  0  0  0
M  END
