
 OpenBabel02032211183D

 26 26  0  0  0  0  0  0  0  0999 V2000
    1.1040    0.2446   -0.3089 C   0  0  0  0  0  0  0  0  0  0  0  0
    2.3522    0.3945    0.1544 C   0  0  0  0  0  0  0  0  0  0  0  0
    2.9077   -0.1782    1.4241 C   0  0  0  0  0  0  0  0  0  0  0  0
    3.9366    0.5817    1.9961 C   0  0  0  0  0  0  0  0  0  0  0  0
    4.5191    0.2366    3.2062 C   0  0  0  0  0  0  0  0  0  0  0  0
    5.4954    1.0497    3.6940 O   0  0  0  0  0  0  0  0  0  0  0  0
    6.1864    0.9070    4.8821 C   0  0  0  0  0  0  0  0  0  0  0  0
    5.3105    0.9459    5.9529 F   0  0  0  0  0  0  0  0  0  0  0  0
    6.8889   -0.2852    4.8883 F   0  0  0  0  0  0  0  0  0  0  0  0
    7.0831    1.9506    5.0057 F   0  0  0  0  0  0  0  0  0  0  0  0
    4.0763   -0.9110    3.8747 C   0  0  0  0  0  0  0  0  0  0  0  0
    3.0635   -1.7375    3.3401 C   0  0  0  0  0  0  0  0  0  0  0  0
    2.6471   -2.9810    4.0874 C   0  0  0  0  0  0  0  0  0  0  0  0
    3.1653   -3.4077    5.2511 C   0  0  0  0  0  0  0  0  0  0  0  0
    2.4729   -1.3752    2.0819 C   0  0  0  0  0  0  0  0  0  0  0  0
    1.5118   -2.2295    1.4588 N   0  0  0  0  0  0  0  0  0  0  0  0
    0.8144    0.7465   -1.2268 H   0  0  0  0  0  0  0  0  0  0  0  0
    0.3368   -0.3134    0.2089 H   0  0  0  0  0  0  0  0  0  0  0  0
    2.9900    1.0649   -0.4163 H   0  0  0  0  0  0  0  0  0  0  0  0
    4.2815    1.4860    1.5060 H   0  0  0  0  0  0  0  0  0  0  0  0
    4.5415   -1.1526    4.8112 H   0  0  0  0  0  0  0  0  0  0  0  0
    1.8709   -3.6223    3.7043 H   0  0  0  0  0  0  0  0  0  0  0  0
    3.9518   -2.9017    5.7904 H   0  0  0  0  0  0  0  0  0  0  0  0
    2.7841   -4.3210    5.6978 H   0  0  0  0  0  0  0  0  0  0  0  0
    1.1229   -3.0669    1.8999 H   0  0  0  0  0  0  0  0  0  0  0  0
    1.2850   -2.1463    0.4634 H   0  0  0  0  0  0  0  0  0  0  0  0
  1  2  2  0  0  0  0
  1 17  1  0  0  0  0
  1 18  1  0  0  0  0
  2  3  1  0  0  0  0
  2 19  1  0  0  0  0
  3  4  1  0  0  0  0
  3 15  2  0  0  0  0
  4  5  2  0  0  0  0
  4 20  1  0  0  0  0
  5  6  1  0  0  0  0
  5 11  1  0  0  0  0
  6  7  1  0  0  0  0
  7  8  1  0  0  0  0
  7  9  1  0  0  0  0
  7 10  1  0  0  0  0
 11 12  2  0  0  0  0
 11 21  1  0  0  0  0
 12 13  1  0  0  0  0
 12 15  1  0  0  0  0
 13 14  2  0  0  0  0
 13 22  1  0  0  0  0
 14 23  1  0  0  0  0
 14 24  1  0  0  0  0
 15 16  1  0  0  0  0
 16 25  1  0  0  0  0
 16 26  1  0  0  0  0
M  END
