
 OpenBabel02032210583D

 22 22  0  0  0  0  0  0  0  0999 V2000
    0.9316   -0.2616   -0.1295 C   0  0  0  0  0  0  0  0  0  0  0  0
    2.2283    0.0221    0.0473 C   0  0  0  0  0  0  0  0  0  0  0  0
    2.9950   -0.2719    1.2671 C   0  0  0  0  0  0  0  0  0  0  0  0
    2.6993   -1.3563    2.0935 C   0  0  0  0  0  0  0  0  0  0  0  0
    3.4586   -1.6031    3.2416 C   0  0  0  0  0  0  0  0  0  0  0  0
    4.5626   -0.8005    3.5712 C   0  0  0  0  0  0  0  0  0  0  0  0
    5.2947   -1.0420    4.8327 C   0  0  0  0  0  0  0  0  0  0  0  0
    5.4683   -2.2394    5.4093 C   0  0  0  0  0  0  0  0  0  0  0  0
    4.9102    0.2617    2.7055 C   0  0  0  0  0  0  0  0  0  0  0  0
    5.9303    1.1856    3.0248 N   0  0  0  0  0  0  0  0  0  0  0  0
    4.0930    0.5363    1.5942 C   0  0  0  0  0  0  0  0  0  0  0  0
    0.4379   -0.0087   -1.0626 H   0  0  0  0  0  0  0  0  0  0  0  0
    0.3239   -0.7311    0.6364 H   0  0  0  0  0  0  0  0  0  0  0  0
    2.7734    0.5180   -0.7527 H   0  0  0  0  0  0  0  0  0  0  0  0
    1.8684   -2.0195    1.8700 H   0  0  0  0  0  0  0  0  0  0  0  0
    3.1558   -2.4234    3.8868 H   0  0  0  0  0  0  0  0  0  0  0  0
    5.7063   -0.1601    5.3180 H   0  0  0  0  0  0  0  0  0  0  0  0
    5.0875   -3.1594    4.9791 H   0  0  0  0  0  0  0  0  0  0  0  0
    6.0089   -2.3237    6.3471 H   0  0  0  0  0  0  0  0  0  0  0  0
    6.7012    0.7548    3.5277 H   0  0  0  0  0  0  0  0  0  0  0  0
    6.2577    1.7178    2.2247 H   0  0  0  0  0  0  0  0  0  0  0  0
    4.3210    1.3989    0.9712 H   0  0  0  0  0  0  0  0  0  0  0  0
  1  2  2  0  0  0  0
  1 12  1  0  0  0  0
  1 13  1  0  0  0  0
  2  3  1  0  0  0  0
  2 14  1  0  0  0  0
  3  4  1  0  0  0  0
  3 11  2  0  0  0  0
  4  5  2  0  0  0  0
  4 15  1  0  0  0  0
  5  6  1  0  0  0  0
  5 16  1  0  0  0  0
  6  7  1  0  0  0  0
  6  9  2  0  0  0  0
  7  8  2  0  0  0  0
  7 17  1  0  0  0  0
  8 18  1  0  0  0  0
  8 19  1  0  0  0  0
  9 10  1  0  0  0  0
  9 11  1  0  0  0  0
 10 20  1  0  0  0  0
 10 21  1  0  0  0  0
 11 22  1  0  0  0  0
M  END
