
 OpenBabel02032210513D

 19 19  0  0  0  0  0  0  0  0999 V2000
    2.8448   -1.1231   -0.5692 C   0  0  0  0  0  0  0  0  0  0  0  0
    2.4121    0.0503   -0.0948 C   0  0  0  0  0  0  0  0  0  0  0  0
    3.0853    1.3315   -0.4020 C   0  0  0  0  0  0  0  0  0  0  0  0
    2.5758    2.5287    0.1101 C   0  0  0  0  0  0  0  0  0  0  0  0
    3.2105    3.7358   -0.1899 C   0  0  0  0  0  0  0  0  0  0  0  0
    4.3615    3.7527   -1.0037 C   0  0  0  0  0  0  0  0  0  0  0  0
    5.1095    4.9880   -1.3867 C   0  0  0  0  0  0  0  0  0  0  0  0
    4.8021    6.2572   -1.0670 C   0  0  0  0  0  0  0  0  0  0  0  0
    3.7203    6.5966   -0.3240 F   0  0  0  0  0  0  0  0  0  0  0  0
    5.6054    7.2585   -1.5129 F   0  0  0  0  0  0  0  0  0  0  0  0
    4.8368    2.5218   -1.4882 C   0  0  0  0  0  0  0  0  0  0  0  0
    4.1988    1.3617   -1.1835 N   0  0  0  0  0  0  0  0  0  0  0  0
    2.3147   -2.0359   -0.3171 H   0  0  0  0  0  0  0  0  0  0  0  0
    3.7196   -1.1913   -1.2081 H   0  0  0  0  0  0  0  0  0  0  0  0
    1.5290    0.0567    0.5382 H   0  0  0  0  0  0  0  0  0  0  0  0
    1.6914    2.5304    0.7358 H   0  0  0  0  0  0  0  0  0  0  0  0
    2.7818    4.6302    0.2262 H   0  0  0  0  0  0  0  0  0  0  0  0
    5.9997    4.8514   -1.9957 H   0  0  0  0  0  0  0  0  0  0  0  0
    5.7180    2.4820   -2.1167 H   0  0  0  0  0  0  0  0  0  0  0  0
  1  2  2  0  0  0  0
  1 13  1  0  0  0  0
  1 14  1  0  0  0  0
  2  3  1  0  0  0  0
  2 15  1  0  0  0  0
  3  4  1  0  0  0  0
  3 12  2  0  0  0  0
  4  5  2  0  0  0  0
  4 16  1  0  0  0  0
  5  6  1  0  0  0  0
  5 17  1  0  0  0  0
  6  7  1  0  0  0  0
  6 11  2  0  0  0  0
  7  8  2  0  0  0  0
  7 18  1  0  0  0  0
  8  9  1  0  0  0  0
  8 10  1  0  0  0  0
 11 12  1  0  0  0  0
 11 19  1  0  0  0  0
M  END
