
  xtb     02032211363D
 xtb: 6.4.1 (23d549d)
 24 24  0     0  0            999 V2000
    3.6343    1.5831   -0.3422 C   0  0  0  0  0  0  0  0  0  0  0  0
    2.5347    1.6427    0.3965 C   0  0  0  0  0  0  0  0  0  0  0  0
    1.3615    0.7979    0.2479 C   0  0  0  0  0  0  0  0  0  0  0  0
    0.0540    1.2820    0.4239 C   0  0  0  0  0  0  0  0  0  0  0  0
   -0.8256    0.2614    0.1094 C   0  0  0  0  0  0  0  0  0  0  0  0
   -2.2759    0.2543    0.1229 C   0  0  0  0  0  0  0  0  0  0  0  0
   -2.9800    1.1847    0.4323 O   0  0  0  0  0  0  0  0  0  0  0  0
   -2.7561   -0.9555   -0.2688 O   0  0  0  0  0  0  0  0  0  0  0  0
   -4.1661   -1.1099   -0.3035 C   0  0  0  0  0  0  0  0  0  0  0  0
   -0.0787   -0.8247   -0.2428 N   0  0  0  0  0  0  0  0  0  0  0  0
    1.2471   -0.5410   -0.1546 C   0  0  0  0  0  0  0  0  0  0  0  0
    2.2023   -1.5983   -0.3886 C   0  0  0  0  0  0  0  0  0  0  0  0
    3.4507   -1.6512    0.0643 C   0  0  0  0  0  0  0  0  0  0  0  0
    4.4458    2.2760   -0.1998 H   0  0  0  0  0  0  0  0  0  0  0  0
    3.7591    0.8484   -1.1195 H   0  0  0  0  0  0  0  0  0  0  0  0
    2.4274    2.4251    1.1380 H   0  0  0  0  0  0  0  0  0  0  0  0
   -0.2250    2.2716    0.7254 H   0  0  0  0  0  0  0  0  0  0  0  0
   -4.4338   -1.5341   -1.2709 H   0  0  0  0  0  0  0  0  0  0  0  0
   -4.6467   -0.1392   -0.1673 H   0  0  0  0  0  0  0  0  0  0  0  0
   -4.4694   -1.7871    0.4969 H   0  0  0  0  0  0  0  0  0  0  0  0
   -0.4726   -1.7189   -0.4879 H   0  0  0  0  0  0  0  0  0  0  0  0
    1.8050   -2.4375   -0.9499 H   0  0  0  0  0  0  0  0  0  0  0  0
    3.8749   -0.8584    0.6542 H   0  0  0  0  0  0  0  0  0  0  0  0
    4.0815   -2.4991   -0.1381 H   0  0  0  0  0  0  0  0  0  0  0  0
  1  2  2  0  0  0  0
  2  3  1  0  0  0  0
  3  4  4  0  0  0  0
  4  5  4  0  0  0  0
  5  6  1  0  0  0  0
  6  7  2  0  0  0  0
  6  8  1  0  0  0  0
  8  9  1  0  0  0  0
  5 10  1  0  0  0  0
  3 11  4  0  0  0  0
 10 11  4  0  0  0  0
 11 12  1  0  0  0  0
 12 13  2  0  0  0  0
  1 14  1  0  0  0  0
  1 15  1  0  0  0  0
  2 16  1  0  0  0  0
  4 17  1  0  0  0  0
  9 18  1  0  0  0  0
  9 19  1  0  0  0  0
  9 20  1  0  0  0  0
 10 21  1  0  0  0  0
 12 22  1  0  0  0  0
 13 23  1  0  0  0  0
 13 24  1  0  0  0  0
M  END
