
  xtb     02012214123D
 xtb: 6.4.1 (23d549d)
 19 19  0     0  0            999 V2000
    0.9454    0.0362   -0.0553 c   0  0  0  0  0  0  0  0  0  0  0  0
    2.4402    0.0820   -0.0549 c   0  0  0  0  0  0  0  0  0  0  0  0
    3.1462    1.2737   -0.0557 c   0  0  0  0  0  0  0  0  0  0  0  0
    4.5338    1.3270   -0.0554 c   0  0  0  0  0  0  0  0  0  0  0  0
    5.2908    2.6184   -0.0563 c   0  0  0  0  0  0  0  0  0  0  0  0
    5.2232    0.1214   -0.0541 c   0  0  0  0  0  0  0  0  0  0  0  0
    6.5711    0.1207   -0.0537 f   0  0  0  0  0  0  0  0  0  0  0  0
    4.5408   -1.0828   -0.0532 c   0  0  0  0  0  0  0  0  0  0  0  0
    5.2104   -2.2652   -0.0519 f   0  0  0  0  0  0  0  0  0  0  0  0
    3.1500   -1.1225   -0.0536 c   0  0  0  0  0  0  0  0  0  0  0  0
    2.4787   -2.3005   -0.0527 o   0  0  0  0  0  0  0  0  0  0  0  0
    0.5253    1.0374   -0.0559 h   0  0  0  0  0  0  0  0  0  0  0  0
    0.5900   -0.5026    0.8212 h   0  0  0  0  0  0  0  0  0  0  0  0
    0.5905   -0.5034   -0.9315 h   0  0  0  0  0  0  0  0  0  0  0  0
    2.5947    2.2017   -0.0567 h   0  0  0  0  0  0  0  0  0  0  0  0
    4.6093    3.4637   -0.0574 h   0  0  0  0  0  0  0  0  0  0  0  0
    5.9327    2.6788   -0.9342 h   0  0  0  0  0  0  0  0  0  0  0  0
    5.9320    2.6805    0.8219 h   0  0  0  0  0  0  0  0  0  0  0  0
    3.1129   -3.0301   -0.0519 h   0  0  0  0  0  0  0  0  0  0  0  0
  1  2  1  0  0  0  0
  2  3  4  0  0  0  0
  3  4  4  0  0  0  0
  4  5  1  0  0  0  0
  4  6  4  0  0  0  0
  6  7  1  0  0  0  0
  6  8  4  0  0  0  0
  8  9  1  0  0  0  0
  2 10  4  0  0  0  0
  8 10  4  0  0  0  0
 10 11  1  0  0  0  0
  1 12  1  0  0  0  0
  1 13  1  0  0  0  0
  1 14  1  0  0  0  0
  3 15  1  0  0  0  0
  5 16  1  0  0  0  0
  5 17  1  0  0  0  0
  5 18  1  0  0  0  0
 11 19  1  0  0  0  0
M  END
