
  xtb     02032211343D
 xtb: 6.4.1 (23d549d)
 38 41  0     0  0            999 V2000
   -5.0773    0.0495    0.2706 O   0  0  0  0  0  0  0  0  0  0  0  0
   -3.8597    0.0326    0.1640 C   0  0  0  0  0  0  0  0  0  0  0  0
   -3.0543    1.2555    0.0793 C   0  0  0  0  0  0  0  0  0  0  0  0
   -3.6964    2.4958    0.1233 C   0  0  0  0  0  0  0  0  0  0  0  0
   -2.9837    3.6681    0.0382 C   0  0  0  0  0  0  0  0  0  0  0  0
   -1.5997    3.6145   -0.0989 C   0  0  0  0  0  0  0  0  0  0  0  0
   -0.9428    2.4059   -0.1451 C   0  0  0  0  0  0  0  0  0  0  0  0
   -1.6570    1.2040   -0.0515 C   0  0  0  0  0  0  0  0  0  0  0  0
   -1.0033   -0.0073   -0.0963 N   0  0  0  0  0  0  0  0  0  0  0  0
    0.4142   -0.0281   -0.2336 C   0  0  0  0  0  0  0  0  0  0  0  0
    1.2257    0.1097    0.8857 C   0  0  0  0  0  0  0  0  0  0  0  0
    2.6003    0.0886    0.7555 C   0  0  0  0  0  0  0  0  0  0  0  0
    3.1917   -0.0720   -0.4997 C   0  0  0  0  0  0  0  0  0  0  0  0
    4.6301   -0.1050   -0.7109 C   0  0  0  0  0  0  0  0  0  0  0  0
    5.5976    0.0034    0.1884 C   0  0  0  0  0  0  0  0  0  0  0  0
    5.4795    0.1687    1.4987 F   0  0  0  0  0  0  0  0  0  0  0  0
    6.8881   -0.0424   -0.1269 F   0  0  0  0  0  0  0  0  0  0  0  0
    2.3625   -0.2093   -1.6163 C   0  0  0  0  0  0  0  0  0  0  0  0
    0.9887   -0.1875   -1.4887 C   0  0  0  0  0  0  0  0  0  0  0  0
   -1.6872   -1.1999   -0.0139 C   0  0  0  0  0  0  0  0  0  0  0  0
   -3.0860   -1.2125    0.1103 C   0  0  0  0  0  0  0  0  0  0  0  0
   -3.7591   -2.4343    0.1915 C   0  0  0  0  0  0  0  0  0  0  0  0
   -3.0750   -3.6260    0.1543 C   0  0  0  0  0  0  0  0  0  0  0  0
   -1.6880   -3.6110    0.0386 C   0  0  0  0  0  0  0  0  0  0  0  0
   -1.0010   -2.4212   -0.0432 C   0  0  0  0  0  0  0  0  0  0  0  0
   -4.7713    2.4916    0.2253 H   0  0  0  0  0  0  0  0  0  0  0  0
   -3.4880    4.6213    0.0739 H   0  0  0  0  0  0  0  0  0  0  0  0
   -1.0298    4.5291   -0.1715 H   0  0  0  0  0  0  0  0  0  0  0  0
    0.1309    2.3829   -0.2558 H   0  0  0  0  0  0  0  0  0  0  0  0
    0.7715    0.2341    1.8572 H   0  0  0  0  0  0  0  0  0  0  0  0
    3.2092    0.1966    1.6374 H   0  0  0  0  0  0  0  0  0  0  0  0
    4.9645   -0.2347   -1.7301 H   0  0  0  0  0  0  0  0  0  0  0  0
    2.8037   -0.3333   -2.5940 H   0  0  0  0  0  0  0  0  0  0  0  0
    0.3533   -0.2948   -2.3550 H   0  0  0  0  0  0  0  0  0  0  0  0
   -4.8341   -2.4002    0.2854 H   0  0  0  0  0  0  0  0  0  0  0  0
   -3.6031   -4.5647    0.2172 H   0  0  0  0  0  0  0  0  0  0  0  0
   -1.1394   -4.5410    0.0141 H   0  0  0  0  0  0  0  0  0  0  0  0
    0.0754   -2.4281   -0.1272 H   0  0  0  0  0  0  0  0  0  0  0  0
  1  2  2  0  0  0  0
  2  3  1  0  0  0  0
  3  4  4  0  0  0  0
  4  5  4  0  0  0  0
  5  6  4  0  0  0  0
  6  7  4  0  0  0  0
  3  8  4  0  0  0  0
  7  8  4  0  0  0  0
  8  9  1  0  0  0  0
  9 10  1  0  0  0  0
 10 11  4  0  0  0  0
 11 12  4  0  0  0  0
 12 13  4  0  0  0  0
 13 14  1  0  0  0  0
 14 15  2  0  0  0  0
 15 16  1  0  0  0  0
 15 17  1  0  0  0  0
 13 18  4  0  0  0  0
 10 19  4  0  0  0  0
 18 19  4  0  0  0  0
  9 20  1  0  0  0  0
  2 21  1  0  0  0  0
 20 21  4  0  0  0  0
 21 22  4  0  0  0  0
 22 23  4  0  0  0  0
 23 24  4  0  0  0  0
 20 25  4  0  0  0  0
 24 25  4  0  0  0  0
  4 26  1  0  0  0  0
  5 27  1  0  0  0  0
  6 28  1  0  0  0  0
  7 29  1  0  0  0  0
 11 30  1  0  0  0  0
 12 31  1  0  0  0  0
 14 32  1  0  0  0  0
 18 33  1  0  0  0  0
 19 34  1  0  0  0  0
 22 35  1  0  0  0  0
 23 36  1  0  0  0  0
 24 37  1  0  0  0  0
 25 38  1  0  0  0  0
M  END
