
 OpenBabel02012213383D

 45 49  0  0  0  0  0  0  0  0999 V2000
    1.0244    0.2284    0.1740 C   0  0  0  0  0  0  0  0  0  0  0  0
    2.5223    0.1651    0.1445 C   0  0  0  0  0  0  0  0  0  0  0  0
    3.2910    1.3462    0.1124 C   0  0  0  0  0  0  0  0  0  0  0  0
    4.6794    1.2247    0.0790 C   0  0  0  0  0  0  0  0  0  0  0  0
    5.6633    2.1833    0.0508 C   0  0  0  0  0  0  0  0  0  0  0  0
    5.5765    3.5746    0.0421 C   0  0  0  0  0  0  0  0  0  0  0  0
    6.7721    4.3372   -0.0336 C   0  0  0  0  0  0  0  0  0  0  0  0
    6.7337    5.8450   -0.0586 C   0  0  0  0  0  0  0  0  0  0  0  0
    5.5829    6.5569    0.3583 C   0  0  0  0  0  0  0  0  0  0  0  0
    5.5533    7.9545    0.3377 C   0  0  0  0  0  0  0  0  0  0  0  0
    6.6603    8.6746   -0.1054 C   0  0  0  0  0  0  0  0  0  0  0  0
    7.8034    7.9992   -0.5255 C   0  0  0  0  0  0  0  0  0  0  0  0
    7.8461    6.6025   -0.5000 C   0  0  0  0  0  0  0  0  0  0  0  0
    8.0100    3.6326   -0.1000 C   0  0  0  0  0  0  0  0  0  0  0  0
    8.0627    2.2297   -0.0738 C   0  0  0  0  0  0  0  0  0  0  0  0
    6.8653    1.5137    0.0147 C   0  0  0  0  0  0  0  0  0  0  0  0
    6.6738    0.1611    0.0321 N   0  0  0  0  0  0  0  0  0  0  0  0
    7.6914   -0.8726    0.0129 C   0  0  0  0  0  0  0  0  0  0  0  0
    8.8857   -0.7209    0.7474 C   0  0  0  0  0  0  0  0  0  0  0  0
    9.8666   -1.7176    0.7292 C   0  0  0  0  0  0  0  0  0  0  0  0
    9.6745   -2.8771   -0.0229 C   0  0  0  0  0  0  0  0  0  0  0  0
    8.4993   -3.0430   -0.7561 C   0  0  0  0  0  0  0  0  0  0  0  0
    7.5132   -2.0524   -0.7379 C   0  0  0  0  0  0  0  0  0  0  0  0
    5.3181   -0.0001    0.0667 C   0  0  0  0  0  0  0  0  0  0  0  0
    4.5698   -1.1857    0.1230 C   0  0  0  0  0  0  0  0  0  0  0  0
    3.1676   -1.0930    0.1555 C   0  0  0  0  0  0  0  0  0  0  0  0
    0.6605    1.2780    0.1626 H   0  0  0  0  0  0  0  0  0  0  0  0
    0.6466   -0.2660    1.0934 H   0  0  0  0  0  0  0  0  0  0  0  0
    0.6131   -0.2947   -0.7151 H   0  0  0  0  0  0  0  0  0  0  0  0
    2.8207    2.3214    0.1128 H   0  0  0  0  0  0  0  0  0  0  0  0
    4.5992    4.0285    0.0674 H   0  0  0  0  0  0  0  0  0  0  0  0
    4.7009    6.0547    0.7230 H   0  0  0  0  0  0  0  0  0  0  0  0
    4.6672    8.4808    0.6689 H   0  0  0  0  0  0  0  0  0  0  0  0
    6.6325    9.7564   -0.1234 H   0  0  0  0  0  0  0  0  0  0  0  0
    8.6615    8.5590   -0.8749 H   0  0  0  0  0  0  0  0  0  0  0  0
    8.7541    6.1382   -0.8498 H   0  0  0  0  0  0  0  0  0  0  0  0
    8.9557    4.1472   -0.1585 H   0  0  0  0  0  0  0  0  0  0  0  0
    9.0242    1.7463   -0.1409 H   0  0  0  0  0  0  0  0  0  0  0  0
    9.0568    0.1511    1.3589 H   0  0  0  0  0  0  0  0  0  0  0  0
   10.7755   -1.5915    1.3025 H   0  0  0  0  0  0  0  0  0  0  0  0
   10.4361   -3.6459   -0.0370 H   0  0  0  0  0  0  0  0  0  0  0  0
    8.3528   -3.9404   -1.3438 H   0  0  0  0  0  0  0  0  0  0  0  0
    6.6271   -2.2024   -1.3372 H   0  0  0  0  0  0  0  0  0  0  0  0
    5.0270   -2.1615    0.1515 H   0  0  0  0  0  0  0  0  0  0  0  0
    2.5800   -2.0021    0.1929 H   0  0  0  0  0  0  0  0  0  0  0  0
  1  2  1  0  0  0  0
  1 27  1  0  0  0  0
  1 28  1  0  0  0  0
  1 29  1  0  0  0  0
  2  3  1  0  0  0  0
  2 26  2  0  0  0  0
  3  4  2  0  0  0  0
  3 30  1  0  0  0  0
  4  5  1  0  0  0  0
  4 24  1  0  0  0  0
  5  6  2  0  0  0  0
  5 16  1  0  0  0  0
  6  7  1  0  0  0  0
  6 31  1  0  0  0  0
  7  8  1  0  0  0  0
  7 14  2  0  0  0  0
  8  9  1  0  0  0  0
  8 13  2  0  0  0  0
  9 10  2  0  0  0  0
  9 32  1  0  0  0  0
 10 11  1  0  0  0  0
 10 33  1  0  0  0  0
 11 12  2  0  0  0  0
 11 34  1  0  0  0  0
 12 13  1  0  0  0  0
 12 35  1  0  0  0  0
 13 36  1  0  0  0  0
 14 15  1  0  0  0  0
 14 37  1  0  0  0  0
 15 16  2  0  0  0  0
 15 38  1  0  0  0  0
 16 17  1  0  0  0  0
 17 18  1  0  0  0  0
 17 24  1  0  0  0  0
 18 19  1  0  0  0  0
 18 23  2  0  0  0  0
 19 20  2  0  0  0  0
 19 39  1  0  0  0  0
 20 21  1  0  0  0  0
 20 40  1  0  0  0  0
 21 22  2  0  0  0  0
 21 41  1  0  0  0  0
 22 23  1  0  0  0  0
 22 42  1  0  0  0  0
 23 43  1  0  0  0  0
 24 25  2  0  0  0  0
 25 26  1  0  0  0  0
 25 44  1  0  0  0  0
 26 45  1  0  0  0  0
M  END
