
  xtb     02032211353D
 xtb: 6.4.1 (23d549d)
 27 27  0     0  0            999 V2000
   -4.4082    0.5059   -0.5885 C   0  0  0  0  0  0  0  0  0  0  0  0
   -3.5327   -0.3495   -0.0737 C   0  0  0  0  0  0  0  0  0  0  0  0
   -2.0957   -0.1371    0.0635 C   0  0  0  0  0  0  0  0  0  0  0  0
   -1.2363   -1.2180   -0.0543 C   0  0  0  0  0  0  0  0  0  0  0  0
    0.1501   -1.0666    0.0260 C   0  0  0  0  0  0  0  0  0  0  0  0
    1.0716   -2.1897   -0.0802 C   0  0  0  0  0  0  0  0  0  0  0  0
    0.8151   -3.3354   -0.6989 C   0  0  0  0  0  0  0  0  0  0  0  0
    0.6123    0.2351    0.2529 C   0  0  0  0  0  0  0  0  0  0  0  0
    2.0769    0.5446    0.3337 C   0  0  0  0  0  0  0  0  0  0  0  0
    2.6390    0.9790    1.3031 O   0  0  0  0  0  0  0  0  0  0  0  0
    2.6750    0.2656   -0.8312 O   0  0  0  0  0  0  0  0  0  0  0  0
    4.0722    0.5101   -0.9330 C   0  0  0  0  0  0  0  0  0  0  0  0
   -0.1872    1.2728    0.4305 N   0  0  0  0  0  0  0  0  0  0  0  0
   -1.5044    1.1190    0.3485 C   0  0  0  0  0  0  0  0  0  0  0  0
   -2.2353    2.2540    0.5431 N   0  0  0  0  0  0  0  0  0  0  0  0
   -5.4513    0.2516   -0.6729 H   0  0  0  0  0  0  0  0  0  0  0  0
   -4.1155    1.4624   -0.9868 H   0  0  0  0  0  0  0  0  0  0  0  0
   -3.8729   -1.3285    0.2441 H   0  0  0  0  0  0  0  0  0  0  0  0
   -1.6536   -2.2019   -0.2137 H   0  0  0  0  0  0  0  0  0  0  0  0
    2.0373   -2.0401    0.3850 H   0  0  0  0  0  0  0  0  0  0  0  0
   -0.1180   -3.5233   -1.2027 H   0  0  0  0  0  0  0  0  0  0  0  0
    1.5423   -4.1279   -0.7378 H   0  0  0  0  0  0  0  0  0  0  0  0
    4.5534   -0.4132   -1.2558 H   0  0  0  0  0  0  0  0  0  0  0  0
    4.4648    0.8264    0.0355 H   0  0  0  0  0  0  0  0  0  0  0  0
    4.2347    1.2919   -1.6753 H   0  0  0  0  0  0  0  0  0  0  0  0
   -1.7080    3.0198    0.9325 H   0  0  0  0  0  0  0  0  0  0  0  0
   -3.1857    2.1476    0.8585 H   0  0  0  0  0  0  0  0  0  0  0  0
  1  2  2  0  0  0  0
  2  3  1  0  0  0  0
  3  4  4  0  0  0  0
  4  5  4  0  0  0  0
  5  6  1  0  0  0  0
  6  7  2  0  0  0  0
  5  8  4  0  0  0  0
  8  9  1  0  0  0  0
  9 10  2  0  0  0  0
  9 11  1  0  0  0  0
 11 12  1  0  0  0  0
  8 13  4  0  0  0  0
  3 14  4  0  0  0  0
 13 14  4  0  0  0  0
 14 15  4  0  0  0  0
  1 16  1  0  0  0  0
  1 17  1  0  0  0  0
  2 18  1  0  0  0  0
  4 19  1  0  0  0  0
  6 20  1  0  0  0  0
  7 21  1  0  0  0  0
  7 22  1  0  0  0  0
 12 23  1  0  0  0  0
 12 24  1  0  0  0  0
 12 25  1  0  0  0  0
 15 26  1  0  0  0  0
 15 27  1  0  0  0  0
M  END
