
  xtb     02032211353D
 xtb: 6.4.1 (23d549d)
 29 29  0     0  0            999 V2000
   -4.1937   -1.6822    0.4613 C   0  0  0  0  0  0  0  0  0  0  0  0
   -2.9250   -1.9598    0.1738 C   0  0  0  0  0  0  0  0  0  0  0  0
   -1.8815   -0.9847    0.0205 C   0  0  0  0  0  0  0  0  0  0  0  0
   -0.5647   -1.2199   -0.2774 C   0  0  0  0  0  0  0  0  0  0  0  0
    0.2360   -0.0634   -0.3581 C   0  0  0  0  0  0  0  0  0  0  0  0
    1.6923   -0.1436   -0.6904 C   0  0  0  0  0  0  0  0  0  0  0  0
    2.5309   -0.3606    0.5761 C   0  0  0  0  0  0  0  0  0  0  0  0
    4.0353   -0.2815    0.3192 C   0  0  0  0  0  0  0  0  0  0  0  0
    4.5533   -1.4118   -0.5625 C   0  0  0  0  0  0  0  0  0  0  0  0
   -0.4821    1.0863   -0.1097 C   0  0  0  0  0  0  0  0  0  0  0  0
   -0.1173    2.4802   -0.0913 C   0  0  0  0  0  0  0  0  0  0  0  0
    1.0960    3.0056    0.0603 C   0  0  0  0  0  0  0  0  0  0  0  0
   -2.1603    0.7186    0.1988 S   0  0  0  0  0  0  0  0  0  0  0  0
   -4.9338   -2.4557    0.5641 H   0  0  0  0  0  0  0  0  0  0  0  0
   -4.5266   -0.6670    0.6022 H   0  0  0  0  0  0  0  0  0  0  0  0
   -2.6058   -2.9855    0.0354 H   0  0  0  0  0  0  0  0  0  0  0  0
   -0.1762   -2.2106   -0.4424 H   0  0  0  0  0  0  0  0  0  0  0  0
    2.0103    0.7695   -1.1961 H   0  0  0  0  0  0  0  0  0  0  0  0
    1.8454   -0.9819   -1.3725 H   0  0  0  0  0  0  0  0  0  0  0  0
    2.2855   -1.3362    1.0020 H   0  0  0  0  0  0  0  0  0  0  0  0
    2.2553    0.3950    1.3160 H   0  0  0  0  0  0  0  0  0  0  0  0
    4.5525   -0.3183    1.2812 H   0  0  0  0  0  0  0  0  0  0  0  0
    4.2739    0.6781   -0.1463 H   0  0  0  0  0  0  0  0  0  0  0  0
    4.2878   -2.3776   -0.1375 H   0  0  0  0  0  0  0  0  0  0  0  0
    5.6367   -1.3603   -0.6436 H   0  0  0  0  0  0  0  0  0  0  0  0
    4.1369   -1.3485   -1.5645 H   0  0  0  0  0  0  0  0  0  0  0  0
   -0.9639    3.1501   -0.1874 H   0  0  0  0  0  0  0  0  0  0  0  0
    1.9803    2.4158    0.2134 H   0  0  0  0  0  0  0  0  0  0  0  0
    1.2334    4.0734    0.0528 H   0  0  0  0  0  0  0  0  0  0  0  0
  1  2  2  0  0  0  0
  2  3  1  0  0  0  0
  3  4  2  0  0  0  0
  4  5  4  0  0  0  0
  5  6  1  0  0  0  0
  6  7  1  0  0  0  0
  7  8  1  0  0  0  0
  8  9  1  0  0  0  0
  5 10  4  0  0  0  0
 10 11  1  0  0  0  0
 11 12  2  0  0  0  0
  3 13  1  0  0  0  0
 10 13  1  0  0  0  0
  1 14  1  0  0  0  0
  1 15  1  0  0  0  0
  2 16  1  0  0  0  0
  4 17  1  0  0  0  0
  6 18  1  0  0  0  0
  6 19  1  0  0  0  0
  7 20  1  0  0  0  0
  7 21  1  0  0  0  0
  8 22  1  0  0  0  0
  8 23  1  0  0  0  0
  9 24  1  0  0  0  0
  9 25  1  0  0  0  0
  9 26  1  0  0  0  0
 11 27  1  0  0  0  0
 12 28  1  0  0  0  0
 12 29  1  0  0  0  0
M  END
