17

C          1.36903       -0.60485       -0.36821
C          2.39550        0.17540       -0.01200
C          3.23010        0.90960       -0.99340
C          3.02610        2.19170       -1.47610
O          3.97660        2.49620       -2.33070
C          4.80190        1.47950       -2.43940
C          4.37850        0.44900       -1.61640
C          5.01810       -0.87650       -1.43440
C          4.71636       -1.94023       -2.18710
H          0.79297       -1.11806        0.39513
H          1.08619       -0.74583       -1.40487
H          2.61721        0.26731        1.04533
H          2.22120        2.86350       -1.21200
H          5.67060        1.48000       -3.08300
H          5.76611       -1.00154       -0.65954
H          3.97958       -1.89329       -2.98064
H          5.21768       -2.88594       -2.00793
17

C          2.61059        0.22354        1.30736
C          2.39550        0.17540       -0.01200
C          3.23010        0.90960       -0.99340
C          3.02610        2.19170       -1.47610
O          3.97660        2.49620       -2.33070
C          4.80190        1.47950       -2.43940
C          4.37850        0.44900       -1.61640
C          5.01810       -0.87650       -1.43440
C          5.95790       -1.11114       -0.51198
H          1.96643       -0.33567        1.97838
H          3.41543        0.80766        1.73814
H          1.57058       -0.43168       -0.36767
H          2.22120        2.86350       -1.21200
H          5.67060        1.48000       -3.08300
H          4.71852       -1.70094       -2.07167
H          6.30899       -0.33784        0.16144
H          6.39067       -2.10255       -0.42470
17

C          2.61059        0.22354        1.30736
C          2.39550        0.17540       -0.01200
C          3.23010        0.90960       -0.99340
C          3.02610        2.19170       -1.47610
O          3.97660        2.49620       -2.33070
C          4.80190        1.47950       -2.43940
C          4.37850        0.44900       -1.61640
C          5.01810       -0.87650       -1.43440
C          6.33583       -1.07198       -1.55487
H          1.96643       -0.33567        1.97838
H          3.41543        0.80766        1.73814
H          1.57058       -0.43168       -0.36767
H          2.22120        2.86350       -1.21200
H          5.67060        1.48000       -3.08300
H          4.40014       -1.73379       -1.19205
H          7.01775       -0.26447       -1.79504
H          6.74797       -2.06545       -1.41017
17

C          2.61059        0.22354        1.30736
C          2.39550        0.17540       -0.01200
C          3.23010        0.90960       -0.99340
C          3.02610        2.19170       -1.47610
O          3.97660        2.49620       -2.33070
C          4.80190        1.47950       -2.43940
C          4.37850        0.44900       -1.61640
C          5.01810       -0.87650       -1.43440
C          4.71636       -1.94023       -2.18710
H          1.96643       -0.33567        1.97838
H          3.41543        0.80766        1.73814
H          1.57058       -0.43168       -0.36767
H          2.22120        2.86350       -1.21200
H          5.67060        1.48000       -3.08300
H          5.76611       -1.00154       -0.65954
H          3.97958       -1.89329       -2.98064
H          5.21768       -2.88594       -2.00793
17

C          1.36903       -0.60485       -0.36821
C          2.39550        0.17540       -0.01200
C          3.23010        0.90960       -0.99340
C          3.02610        2.19170       -1.47610
O          3.97660        2.49620       -2.33070
C          4.80190        1.47950       -2.43940
C          4.37850        0.44900       -1.61640
C          5.01810       -0.87650       -1.43440
C          5.95790       -1.11114       -0.51198
H          0.79297       -1.11806        0.39513
H          1.08619       -0.74583       -1.40487
H          2.61721        0.26731        1.04533
H          2.22120        2.86350       -1.21200
H          5.67060        1.48000       -3.08300
H          4.71852       -1.70094       -2.07167
H          6.30899       -0.33784        0.16144
H          6.39067       -2.10255       -0.42470
17

C          2.26640       -1.15599       -0.01740
C          2.39550        0.17540       -0.01200
C          3.23010        0.90960       -0.99340
C          3.02610        2.19170       -1.47610
O          3.97660        2.49620       -2.33070
C          4.80190        1.47950       -2.43940
C          4.37850        0.44900       -1.61640
C          5.01810       -0.87650       -1.43440
C          5.95790       -1.11114       -0.51198
H          1.64087       -1.63901        0.72646
H          2.76943       -1.77985       -0.74698
H          1.86044        0.73188        0.74931
H          2.22120        2.86350       -1.21200
H          5.67060        1.48000       -3.08300
H          4.71852       -1.70094       -2.07167
H          6.30899       -0.33784        0.16144
H          6.39067       -2.10255       -0.42470
17

C          2.26640       -1.15599       -0.01740
C          2.39550        0.17540       -0.01200
C          3.23010        0.90960       -0.99340
C          3.02610        2.19170       -1.47610
O          3.97660        2.49620       -2.33070
C          4.80190        1.47950       -2.43940
C          4.37850        0.44900       -1.61640
C          5.01810       -0.87650       -1.43440
C          4.71636       -1.94023       -2.18710
H          1.64087       -1.63901        0.72646
H          2.76943       -1.77985       -0.74698
H          1.86044        0.73188        0.74931
H          2.22120        2.86350       -1.21200
H          5.67060        1.48000       -3.08300
H          5.76611       -1.00154       -0.65954
H          3.97958       -1.89329       -2.98064
H          5.21768       -2.88594       -2.00793
17

C          2.68213       -1.06247        0.40612
C          2.39550        0.17540       -0.01200
C          3.23010        0.90960       -0.99340
C          3.02610        2.19170       -1.47610
O          3.97660        2.49620       -2.33070
C          4.80190        1.47950       -2.43940
C          4.37850        0.44900       -1.61640
C          5.01810       -0.87650       -1.43440
C          4.33028       -1.98025       -1.12171
H          2.03376       -1.55075        1.12662
H          3.54932       -1.60454        0.04741
H          1.50993        0.65289        0.39214
H          2.22120        2.86350       -1.21200
H          5.67060        1.48000       -3.08300
H          6.09136       -0.96798       -1.55813
H          3.25553       -1.96824       -0.98196
H          4.85267       -2.92384       -1.00120
17

C          2.26640       -1.15599       -0.01740
C          2.39550        0.17540       -0.01200
C          3.23010        0.90960       -0.99340
C          3.02610        2.19170       -1.47610
O          3.97660        2.49620       -2.33070
C          4.80190        1.47950       -2.43940
C          4.37850        0.44900       -1.61640
C          5.01810       -0.87650       -1.43440
C          4.94442       -1.57013       -0.29309
H          1.64087       -1.63901        0.72646
H          2.76943       -1.77985       -0.74698
H          1.86044        0.73188        0.74931
H          2.22120        2.86350       -1.21200
H          5.67060        1.48000       -3.08300
H          5.57315       -1.31395       -2.25666
H          4.40781       -1.19881        0.57232
H          5.43291       -2.53632       -0.21803
17

C          2.26640       -1.15599       -0.01740
C          2.39550        0.17540       -0.01200
C          3.23010        0.90960       -0.99340
C          3.02610        2.19170       -1.47610
O          3.97660        2.49620       -2.33070
C          4.80190        1.47950       -2.43940
C          4.37850        0.44900       -1.61640
C          5.01810       -0.87650       -1.43440
C          4.53268       -1.81250       -0.61136
H          1.64087       -1.63901        0.72646
H          2.76943       -1.77985       -0.74698
H          1.86044        0.73188        0.74931
H          2.22120        2.86350       -1.21200
H          5.67060        1.48000       -3.08300
H          5.92049       -1.10952       -1.98844
H          3.63534       -1.65352       -0.02462
H          5.04387       -2.76536       -0.51887
