27

C          6.05543       -2.88339       -1.94007
C          5.55015       -1.44622       -2.03514
C          4.27951       -1.25492       -1.19532
C          4.51440       -1.54090        0.29630
C          4.99870       -2.94180        0.59740
C          6.23120       -3.17150        1.23540
C          6.52550       -4.51760        1.40420
C          7.75560       -5.07510        2.03920
S          5.27550       -5.43690        0.76640
C          4.33470       -4.13300        0.26610
C          3.02590       -4.28750       -0.44190
H          6.97273       -2.99796       -2.55507
H          5.28414       -3.58884       -2.31651
H          6.29913       -3.13799       -0.88650
H          5.33745       -1.21536       -3.10136
H          6.34548       -0.75963       -1.67210
H          3.49801       -1.95829       -1.55770
H          3.88881       -0.23180       -1.33893
H          3.55095       -1.36526        0.82404
H          5.25125       -0.81423        0.69994
H          6.89240       -2.37800        1.56070
H          8.42840       -4.25780        2.37440
H          8.29630       -5.70760        1.30470
H          7.47310       -5.69310        2.91640
H          2.80420       -5.36350       -0.60130
H          3.07090       -3.78290       -1.42910
H          2.20120       -3.86760        0.16290
27

C          1.52240       -1.86060        0.49049
C          2.40762       -1.72413        1.72643
C          3.66776       -0.90625        1.41089
C          4.51440       -1.54090        0.29630
C          4.99870       -2.94180        0.59740
C          6.23120       -3.17150        1.23540
C          6.52550       -4.51760        1.40420
C          7.75560       -5.07510        2.03920
S          5.27550       -5.43690        0.76640
C          4.33470       -4.13300        0.26610
C          3.02590       -4.28750       -0.44190
H          0.61936       -2.45559        0.74205
H          2.07398       -2.37774       -0.32350
H          1.20068       -0.85893        0.13360
H          2.69319       -2.74130        2.07163
H          1.82794       -1.22262        2.53155
H          4.29807       -0.84714        2.32521
H          3.38368        0.12717        1.14370
H          5.39207       -0.87845        0.12763
H          3.92777       -1.56122       -0.64676
H          6.89240       -2.37800        1.56070
H          8.42840       -4.25780        2.37440
H          8.29630       -5.70760        1.30470
H          7.47310       -5.69310        2.91640
H          2.80420       -5.36350       -0.60130
H          3.07090       -3.78290       -1.42910
H          2.20120       -3.86760        0.16290
27

C          4.85505       -1.30245       -3.58161
C          4.39980       -1.85698       -2.23438
C          4.93878       -1.00200       -1.07898
C          4.51440       -1.54090        0.29630
C          4.99870       -2.94180        0.59740
C          6.23120       -3.17150        1.23540
C          6.52550       -4.51760        1.40420
C          7.75560       -5.07510        2.03920
S          5.27550       -5.43690        0.76640
C          4.33470       -4.13300        0.26610
C          3.02590       -4.28750       -0.44190
H          4.45481       -1.93635       -4.40062
H          5.96434       -1.30055       -3.64269
H          4.48066       -0.26550       -3.71865
H          4.76982       -2.90056       -2.13760
H          3.28858       -1.86718       -2.20556
H          4.53937        0.03121       -1.17762
H          6.03907       -0.93387       -1.14799
H          3.40265       -1.52232        0.33182
H          4.88335       -0.85748        1.09048
H          6.89240       -2.37800        1.56070
H          8.42840       -4.25780        2.37440
H          8.29630       -5.70760        1.30470
H          7.47310       -5.69310        2.91640
H          2.80420       -5.36350       -0.60130
H          3.07090       -3.78290       -1.42910
H          2.20120       -3.86760        0.16290
27

C          7.62758        0.13584       -1.34923
C          6.51686       -0.89159       -1.14796
C          5.63521       -0.51818        0.05191
C          4.51440       -1.54090        0.29630
C          4.99870       -2.94180        0.59740
C          6.23120       -3.17150        1.23540
C          6.52550       -4.51760        1.40420
C          7.75560       -5.07510        2.03920
S          5.27550       -5.43690        0.76640
C          4.33470       -4.13300        0.26610
C          3.02590       -4.28750       -0.44190
H          8.25174       -0.15508       -2.22019
H          8.27515        0.18499       -0.44786
H          7.19394        1.14039       -1.54174
H          6.98151       -1.88735       -0.98087
H          5.89595       -0.93643       -2.06894
H          5.15947        0.46801       -0.14276
H          6.26253       -0.40484        0.95394
H          3.87864       -1.56156       -0.61638
H          3.87643       -1.19548        1.13748
H          6.89240       -2.37800        1.56070
H          8.42840       -4.25780        2.37440
H          8.29630       -5.70760        1.30470
H          7.47310       -5.69310        2.91640
H          2.80420       -5.36350       -0.60130
H          3.07090       -3.78290       -1.42910
H          2.20120       -3.86760        0.16290
27

C          4.24866       -1.51428       -2.72149
C          5.59497       -1.39602       -2.01210
C          5.43354       -0.73570       -0.63575
C          4.51440       -1.54090        0.29630
C          4.99870       -2.94180        0.59740
C          6.23120       -3.17150        1.23540
C          6.52550       -4.51760        1.40420
C          7.75560       -5.07510        2.03920
S          5.27550       -5.43690        0.76640
C          4.33470       -4.13300        0.26610
C          3.02590       -4.28750       -0.44190
H          4.39016       -1.99289       -3.71331
H          3.80271       -0.50798       -2.87228
H          3.55001       -2.13654       -2.12241
H          6.27699       -0.78868       -2.64562
H          6.02920       -2.41216       -1.89097
H          4.98357        0.27247       -0.76961
H          6.42625       -0.59061       -0.17367
H          3.51474       -1.59546       -0.18878
H          4.38894       -0.99315        1.25450
H          6.89240       -2.37800        1.56070
H          8.42840       -4.25780        2.37440
H          8.29630       -5.70760        1.30470
H          7.47310       -5.69310        2.91640
H          2.80420       -5.36350       -0.60130
H          3.07090       -3.78290       -1.42910
H          2.20120       -3.86760        0.16290
27

C          3.04987       -0.82884        2.83403
C          4.57095       -0.76128        2.72660
C          5.00648       -0.47081        1.28355
C          4.51440       -1.54090        0.29630
C          4.99870       -2.94180        0.59740
C          6.23120       -3.17150        1.23540
C          6.52550       -4.51760        1.40420
C          7.75560       -5.07510        2.03920
S          5.27550       -5.43690        0.76640
C          4.33470       -4.13300        0.26610
C          3.02590       -4.28750       -0.44190
H          2.75895       -1.04052        3.88443
H          2.65317       -1.63839        2.18481
H          2.59790        0.13864        2.52755
H          4.99317       -1.73355        3.06094
H          4.94463        0.04127        3.39894
H          6.11751       -0.45166        1.23873
H          4.65098        0.53047        0.98174
H          4.86274       -1.24306       -0.71738
H          3.40374       -1.54359        0.27812
H          6.89240       -2.37800        1.56070
H          8.42840       -4.25780        2.37440
H          8.29630       -5.70760        1.30470
H          7.47310       -5.69310        2.91640
H          2.80420       -5.36350       -0.60130
H          3.07090       -3.78290       -1.42910
H          2.20120       -3.86760        0.16290
27

C          6.70121       -0.39523       -1.45974
C          6.84208       -0.52062        0.05493
C          5.47304       -0.42575        0.74278
C          4.51440       -1.54090        0.29630
C          4.99870       -2.94180        0.59740
C          6.23120       -3.17150        1.23540
C          6.52550       -4.51760        1.40420
C          7.75560       -5.07510        2.03920
S          5.27550       -5.43690        0.76640
C          4.33470       -4.13300        0.26610
C          3.02590       -4.28750       -0.44190
H          7.70230       -0.46559       -1.93478
H          6.24944        0.58444       -1.72506
H          6.06065       -1.21150       -1.85674
H          7.50517        0.29431        0.41764
H          7.31370       -1.49859        0.29346
H          5.00536        0.54924        0.48306
H          5.60536       -0.44175        1.83926
H          4.36670       -1.43252       -0.80099
H          3.52559       -1.39349        0.78048
H          6.89240       -2.37800        1.56070
H          8.42840       -4.25780        2.37440
H          8.29630       -5.70760        1.30470
H          7.47310       -5.69310        2.91640
H          2.80420       -5.36350       -0.60130
H          3.07090       -3.78290       -1.42910
H          2.20120       -3.86760        0.16290
27

C          5.13681       -2.09422        3.20918
C          4.57095       -0.76128        2.72660
C          5.00648       -0.47081        1.28355
C          4.51440       -1.54090        0.29630
C          4.99870       -2.94180        0.59740
C          6.23120       -3.17150        1.23540
C          6.52550       -4.51760        1.40420
C          7.75560       -5.07510        2.03920
S          5.27550       -5.43690        0.76640
C          4.33470       -4.13300        0.26610
C          3.02590       -4.28750       -0.44190
H          4.81008       -2.28220        4.25354
H          6.24726       -2.07411        3.18182
H          4.77133       -2.92387        2.56706
H          4.93552        0.04330        3.40120
H          3.46135       -0.79935        2.78207
H          6.11751       -0.45166        1.23873
H          4.65098        0.53047        0.98174
H          4.86274       -1.24306       -0.71738
H          3.40374       -1.54359        0.27812
H          6.89240       -2.37800        1.56070
H          8.42840       -4.25780        2.37440
H          8.29630       -5.70760        1.30470
H          7.47310       -5.69310        2.91640
H          2.80420       -5.36350       -0.60130
H          3.07090       -3.78290       -1.42910
H          2.20120       -3.86760        0.16290
27

C          4.91131       -2.14115        3.22446
C          4.44070       -0.77567        2.73071
C          3.66776       -0.90625        1.41089
C          4.51440       -1.54090        0.29630
C          4.99870       -2.94180        0.59740
C          6.23120       -3.17150        1.23540
C          6.52550       -4.51760        1.40420
C          7.75560       -5.07510        2.03920
S          5.27550       -5.43690        0.76640
C          4.33470       -4.13300        0.26610
C          3.02590       -4.28750       -0.44190
H          5.46768       -2.02185        4.17788
H          5.58461       -2.61068        2.47583
H          4.04102       -2.80864        3.40130
H          5.33047       -0.12560        2.58552
H          3.78596       -0.31861        3.50412
H          3.36127        0.10708        1.07028
H          2.74332       -1.48760        1.57674
H          5.39207       -0.87845        0.12763
H          3.92777       -1.56122       -0.64676
H          6.89240       -2.37800        1.56070
H          8.42840       -4.25780        2.37440
H          8.29630       -5.70760        1.30470
H          7.47310       -5.69310        2.91640
H          2.80420       -5.36350       -0.60130
H          3.07090       -3.78290       -1.42910
H          2.20120       -3.86760        0.16290
27

C          2.68635       -3.15940        2.06566
C          2.36834       -1.72068        1.66723
C          2.98603       -1.37986        0.30388
C          4.51440       -1.54090        0.29630
C          4.99870       -2.94180        0.59740
C          6.23120       -3.17150        1.23540
C          6.52550       -4.51760        1.40420
C          7.75560       -5.07510        2.03920
S          5.27550       -5.43690        0.76640
C          4.33470       -4.13300        0.26610
C          3.02590       -4.28750       -0.44190
H          2.23112       -3.38241        3.05350
H          3.78527       -3.30508        2.13916
H          2.27409       -3.86775        1.31566
H          2.77281       -1.03960        2.44690
H          1.26482       -1.59516        1.61992
H          2.75427       -0.32050        0.05727
H          2.52458       -2.00545       -0.48080
H          4.92613       -0.84003        1.05581
H          4.91343       -1.23036       -0.69277
H          6.89240       -2.37800        1.56070
H          8.42840       -4.25780        2.37440
H          8.29630       -5.70760        1.30470
H          7.47310       -5.69310        2.91640
H          2.80420       -5.36350       -0.60130
H          3.07090       -3.78290       -1.42910
H          2.20120       -3.86760        0.16290
