
 OpenBabel02032211163D

 22 22  0  0  0  0  0  0  0  0999 V2000
    2.8073   -1.2190   -0.1823 C   0  0  0  0  0  0  0  0  0  0  0  0
    2.3581    0.0374   -0.0892 C   0  0  0  0  0  0  0  0  0  0  0  0
    3.0026    1.1692   -0.7923 C   0  0  0  0  0  0  0  0  0  0  0  0
    2.4849    2.4596   -0.6589 C   0  0  0  0  0  0  0  0  0  0  0  0
    3.0939    3.5358   -1.3237 C   0  0  0  0  0  0  0  0  0  0  0  0
    2.5051    4.9136   -1.1538 C   0  0  0  0  0  0  0  0  0  0  0  0
    4.2395    3.3038   -2.1305 C   0  0  0  0  0  0  0  0  0  0  0  0
    4.9084    4.4371   -2.8485 C   0  0  0  0  0  0  0  0  0  0  0  0
    6.0020    4.3263   -3.6158 C   0  0  0  0  0  0  0  0  0  0  0  0
    4.7180    1.9795   -2.2283 C   0  0  0  0  0  0  0  0  0  0  0  0
    4.0980    0.9678   -1.5694 N   0  0  0  0  0  0  0  0  0  0  0  0
    2.2996   -2.0149    0.3529 H   0  0  0  0  0  0  0  0  0  0  0  0
    3.6747   -1.4707   -0.7845 H   0  0  0  0  0  0  0  0  0  0  0  0
    1.4848    0.2281    0.5286 H   0  0  0  0  0  0  0  0  0  0  0  0
    1.6106    2.6241   -0.0394 H   0  0  0  0  0  0  0  0  0  0  0  0
    1.6160    4.9051   -0.4878 H   0  0  0  0  0  0  0  0  0  0  0  0
    2.1861    5.3114   -2.1402 H   0  0  0  0  0  0  0  0  0  0  0  0
    3.2595    5.5926   -0.7038 H   0  0  0  0  0  0  0  0  0  0  0  0
    4.4970    5.4359   -2.7550 H   0  0  0  0  0  0  0  0  0  0  0  0
    6.5150    3.3913   -3.7920 H   0  0  0  0  0  0  0  0  0  0  0  0
    6.4098    5.2125   -4.0922 H   0  0  0  0  0  0  0  0  0  0  0  0
    5.5807    1.7285   -2.8233 H   0  0  0  0  0  0  0  0  0  0  0  0
  1  2  2  0  0  0  0
  1 12  1  0  0  0  0
  1 13  1  0  0  0  0
  2  3  1  0  0  0  0
  2 14  1  0  0  0  0
  3  4  1  0  0  0  0
  3 11  2  0  0  0  0
  4  5  2  0  0  0  0
  4 15  1  0  0  0  0
  5  6  1  0  0  0  0
  5  7  1  0  0  0  0
  6 16  1  0  0  0  0
  6 17  1  0  0  0  0
  6 18  1  0  0  0  0
  7  8  1  0  0  0  0
  7 10  2  0  0  0  0
  8  9  2  0  0  0  0
  8 19  1  0  0  0  0
  9 20  1  0  0  0  0
  9 21  1  0  0  0  0
 10 11  1  0  0  0  0
 10 22  1  0  0  0  0
M  END
