
 OpenBabel02032211023D

 24 24  0  0  0  0  0  0  0  0999 V2000
    2.4393    0.4828   -1.1018 C   0  0  0  0  0  0  0  0  0  0  0  0
    2.2284    0.0372    0.1441 C   0  0  0  0  0  0  0  0  0  0  0  0
    3.0246   -1.0541    0.7219 C   0  0  0  0  0  0  0  0  0  0  0  0
    4.2498   -0.7081    1.3124 C   0  0  0  0  0  0  0  0  0  0  0  0
    5.0554   -1.6828    1.8981 C   0  0  0  0  0  0  0  0  0  0  0  0
    4.6636   -3.0200    1.8943 C   0  0  0  0  0  0  0  0  0  0  0  0
    5.5404   -3.8773    2.4847 O   0  0  0  0  0  0  0  0  0  0  0  0
    5.0503   -5.0484    3.1255 C   0  0  0  0  0  0  0  0  0  0  0  0
    3.7052   -5.1332    3.1901 F   0  0  0  0  0  0  0  0  0  0  0  0
    5.5232   -6.1373    2.4814 F   0  0  0  0  0  0  0  0  0  0  0  0
    5.5238   -5.0725    4.3926 F   0  0  0  0  0  0  0  0  0  0  0  0
    3.4780   -3.3781    1.2541 C   0  0  0  0  0  0  0  0  0  0  0  0
    2.6158   -2.4059    0.7098 C   0  0  0  0  0  0  0  0  0  0  0  0
    1.3323   -2.8261    0.1107 C   0  0  0  0  0  0  0  0  0  0  0  0
    0.5849   -3.8411    0.5631 C   0  0  0  0  0  0  0  0  0  0  0  0
    1.8492    1.3011   -1.5009 H   0  0  0  0  0  0  0  0  0  0  0  0
    3.1943    0.0457   -1.7483 H   0  0  0  0  0  0  0  0  0  0  0  0
    1.4739    0.4800    0.7836 H   0  0  0  0  0  0  0  0  0  0  0  0
    4.5773    0.3287    1.3255 H   0  0  0  0  0  0  0  0  0  0  0  0
    5.9955   -1.3914    2.3609 H   0  0  0  0  0  0  0  0  0  0  0  0
    3.2071   -4.4261    1.1569 H   0  0  0  0  0  0  0  0  0  0  0  0
    0.9772   -2.2455   -0.7374 H   0  0  0  0  0  0  0  0  0  0  0  0
    0.8667   -4.4415    1.4241 H   0  0  0  0  0  0  0  0  0  0  0  0
   -0.3549   -4.0914    0.0812 H   0  0  0  0  0  0  0  0  0  0  0  0
  1  2  2  0  0  0  0
  1 16  1  0  0  0  0
  1 17  1  0  0  0  0
  2  3  1  0  0  0  0
  2 18  1  0  0  0  0
  3  4  1  0  0  0  0
  3 13  2  0  0  0  0
  4  5  2  0  0  0  0
  4 19  1  0  0  0  0
  5  6  1  0  0  0  0
  5 20  1  0  0  0  0
  6  7  1  0  0  0  0
  6 12  2  0  0  0  0
  7  8  1  0  0  0  0
  8  9  1  0  0  0  0
  8 10  1  0  0  0  0
  8 11  1  0  0  0  0
 12 13  1  0  0  0  0
 12 21  1  0  0  0  0
 13 14  1  0  0  0  0
 14 15  2  0  0  0  0
 14 22  1  0  0  0  0
 15 23  1  0  0  0  0
 15 24  1  0  0  0  0
M  END
