34

C          2.63803        0.94420       -0.63327
C          2.31690        0.14720        0.39480
C          2.91290       -1.19530        0.70210
C          4.03500       -1.15160        1.54280
C          4.68010       -2.31350        1.99260
C          5.90580       -2.27670        2.93860
C          5.91134       -1.04868        3.88232
C          5.91042       -3.54218        3.82464
C          7.20410       -2.22502        2.10294
C          4.16980       -3.54970        1.56660
C          3.06220       -3.65970        0.69930
C          2.59360       -5.02610        0.26080
C          3.36776       -6.11516        0.12046
C          2.42690       -2.45960        0.24240
N          1.36290       -2.51800       -0.70980
H          2.10203        1.87813       -0.77012
H          3.37696        0.68739       -1.37940
H          1.48535        0.48367        1.00972
H          4.38240       -0.18090        1.86440
H          5.01514       -1.04844        4.53999
H          5.94023       -0.10148        3.30134
H          6.80644       -1.06307        4.54138
H          4.98322       -3.58829        4.43591
H          6.78291       -3.53708        4.51353
H          5.97316       -4.47055        3.22024
H          7.21762       -1.31401        1.46639
H          7.30680       -3.11094        1.44292
H          8.09673       -2.20121        2.76521
H          4.66790       -4.43270        1.91820
H          1.55734       -5.20751        0.02935
H          4.43058       -6.13752        0.30895
H          2.91588       -7.04868       -0.20104
H          0.93280       -3.38860       -1.03220
H          1.08410       -1.69590       -1.25430
34

C          1.35423        0.76857        1.08937
C          2.31690        0.14720        0.39480
C          2.91290       -1.19530        0.70210
C          4.03500       -1.15160        1.54280
C          4.68010       -2.31350        1.99260
C          5.90580       -2.27670        2.93860
C          5.91134       -1.04868        3.88232
C          5.91042       -3.54218        3.82464
C          7.20410       -2.22502        2.10294
C          4.16980       -3.54970        1.56660
C          3.06220       -3.65970        0.69930
C          2.59360       -5.02610        0.26080
C          1.67649       -5.78147        0.88802
C          2.42690       -2.45960        0.24240
N          1.36290       -2.51800       -0.70980
H          1.03605        1.76125        0.78671
H          0.90071        0.35709        1.98025
H          2.75462        0.72001       -0.41952
H          4.38240       -0.18090        1.86440
H          5.01514       -1.04844        4.53999
H          5.94023       -0.10148        3.30134
H          6.80644       -1.06307        4.54138
H          4.98322       -3.58829        4.43591
H          6.78291       -3.53708        4.51353
H          5.97316       -4.47055        3.22024
H          7.21762       -1.31401        1.46639
H          7.30680       -3.11094        1.44292
H          8.09673       -2.20121        2.76521
H          4.66790       -4.43270        1.91820
H          2.98999       -5.48787       -0.62799
H          1.16139       -5.49220        1.79168
H          1.41739       -6.75191        0.47554
H          0.93280       -3.38860       -1.03220
H          1.08410       -1.69590       -1.25430
34

C          2.75334        1.33284        0.84093
C          2.31690        0.14720        0.39480
C          2.91290       -1.19530        0.70210
C          4.03500       -1.15160        1.54280
C          4.68010       -2.31350        1.99260
C          5.90580       -2.27670        2.93860
C          5.91134       -1.04868        3.88232
C          5.91042       -3.54218        3.82464
C          7.20410       -2.22502        2.10294
C          4.16980       -3.54970        1.56660
C          3.06220       -3.65970        0.69930
C          2.59360       -5.02610        0.26080
C          1.67649       -5.78147        0.88802
C          2.42690       -2.45960        0.24240
N          1.36290       -2.51800       -0.70980
H          2.25768        2.24057        0.51141
H          3.61689        1.44863        1.48091
H          1.50107        0.18551       -0.32338
H          4.38240       -0.18090        1.86440
H          5.01514       -1.04844        4.53999
H          5.94023       -0.10148        3.30134
H          6.80644       -1.06307        4.54138
H          4.98322       -3.58829        4.43591
H          6.78291       -3.53708        4.51353
H          5.97316       -4.47055        3.22024
H          7.21762       -1.31401        1.46639
H          7.30680       -3.11094        1.44292
H          8.09673       -2.20121        2.76521
H          4.66790       -4.43270        1.91820
H          2.98999       -5.48787       -0.62799
H          1.16139       -5.49220        1.79168
H          1.41739       -6.75191        0.47554
H          0.93280       -3.38860       -1.03220
H          1.08410       -1.69590       -1.25430
34

C          2.97235        1.31429        0.33513
C          2.31690        0.14720        0.39480
C          2.91290       -1.19530        0.70210
C          4.03500       -1.15160        1.54280
C          4.68010       -2.31350        1.99260
C          5.90580       -2.27670        2.93860
C          6.33376       -0.83978        3.32688
C          5.57038       -3.02945        4.24527
C          7.11327       -2.94959        2.24880
C          4.16980       -3.54970        1.56660
C          3.06220       -3.65970        0.69930
C          2.59360       -5.02610        0.26080
C          3.36776       -6.11516        0.12046
C          2.42690       -2.45960        0.24240
N          1.36290       -2.51800       -0.70980
H          2.43173        2.21472        0.06090
H          4.03704        1.40979        0.49637
H          1.26767        0.18122        0.11059
H          4.38240       -0.18090        1.86440
H          5.51537       -0.31228        3.86323
H          6.61982       -0.25370        2.42673
H          7.21466       -0.86127        4.00462
H          4.70599       -2.55120        4.75477
H          6.43724       -3.01549        4.94111
H          5.31612       -4.09291        4.05685
H          7.37083       -2.41223        1.31061
H          6.90709       -4.01001        1.99579
H          8.00362       -2.93587        2.91443
H          4.66790       -4.43270        1.91820
H          1.55734       -5.20751        0.02935
H          4.43058       -6.13752        0.30895
H          2.91588       -7.04868       -0.20104
H          0.93280       -3.38860       -1.03220
H          1.08410       -1.69590       -1.25430
34

C          1.35423        0.76857        1.08937
C          2.31690        0.14720        0.39480
C          2.91290       -1.19530        0.70210
C          4.03500       -1.15160        1.54280
C          4.68010       -2.31350        1.99260
C          5.90580       -2.27670        2.93860
C          5.91134       -1.04868        3.88232
C          5.91042       -3.54218        3.82464
C          7.20410       -2.22502        2.10294
C          4.16980       -3.54970        1.56660
C          3.06220       -3.65970        0.69930
C          2.59360       -5.02610        0.26080
C          1.56658       -5.27637       -0.56846
C          2.42690       -2.45960        0.24240
N          1.36290       -2.51800       -0.70980
H          1.03605        1.76125        0.78671
H          0.90071        0.35709        1.98025
H          2.75462        0.72001       -0.41952
H          4.38240       -0.18090        1.86440
H          5.01514       -1.04844        4.53999
H          5.94023       -0.10148        3.30134
H          6.80644       -1.06307        4.54138
H          4.98322       -3.58829        4.43591
H          6.78291       -3.53708        4.51353
H          5.97316       -4.47055        3.22024
H          7.21762       -1.31401        1.46639
H          7.30680       -3.11094        1.44292
H          8.09673       -2.20121        2.76521
H          4.66790       -4.43270        1.91820
H          3.08874       -5.91799        0.60674
H          0.94967       -4.51614       -1.02354
H          1.32276       -6.30548       -0.81445
H          0.93280       -3.38860       -1.03220
H          1.08410       -1.69590       -1.25430
34

C          1.02697        0.40630        0.14141
C          2.31690        0.14720        0.39480
C          2.91290       -1.19530        0.70210
C          4.03500       -1.15160        1.54280
C          4.68010       -2.31350        1.99260
C          5.90580       -2.27670        2.93860
C          5.91134       -1.04868        3.88232
C          5.91042       -3.54218        3.82464
C          7.20410       -2.22502        2.10294
C          4.16980       -3.54970        1.56660
C          3.06220       -3.65970        0.69930
C          2.59360       -5.02610        0.26080
C          3.01287       -5.68829       -0.83043
C          2.42690       -2.45960        0.24240
N          1.36290       -2.51800       -0.70980
H          0.71331        1.43177       -0.02676
H          0.25457       -0.35006        0.14409
H          2.96770        1.01608        0.46063
H          4.38240       -0.18090        1.86440
H          5.01514       -1.04844        4.53999
H          5.94023       -0.10148        3.30134
H          6.80644       -1.06307        4.54138
H          4.98322       -3.58829        4.43591
H          6.78291       -3.53708        4.51353
H          5.97316       -4.47055        3.22024
H          7.21762       -1.31401        1.46639
H          7.30680       -3.11094        1.44292
H          8.09673       -2.20121        2.76521
H          4.66790       -4.43270        1.91820
H          1.86214       -5.57039        0.83440
H          3.74512       -5.31256       -1.52918
H          2.60347       -6.67110       -1.04376
H          0.93280       -3.38860       -1.03220
H          1.08410       -1.69590       -1.25430
34

C          1.35423        0.76857        1.08937
C          2.31690        0.14720        0.39480
C          2.91290       -1.19530        0.70210
C          4.03500       -1.15160        1.54280
C          4.68010       -2.31350        1.99260
C          5.90580       -2.27670        2.93860
C          5.91134       -1.04868        3.88232
C          5.91042       -3.54218        3.82464
C          7.20410       -2.22502        2.10294
C          4.16980       -3.54970        1.56660
C          3.06220       -3.65970        0.69930
C          2.59360       -5.02610        0.26080
C          3.01287       -5.68829       -0.83043
C          2.42690       -2.45960        0.24240
N          1.36290       -2.51800       -0.70980
H          1.03605        1.76125        0.78671
H          0.90071        0.35709        1.98025
H          2.75462        0.72001       -0.41952
H          4.38240       -0.18090        1.86440
H          5.01514       -1.04844        4.53999
H          5.94023       -0.10148        3.30134
H          6.80644       -1.06307        4.54138
H          4.98322       -3.58829        4.43591
H          6.78291       -3.53708        4.51353
H          5.97316       -4.47055        3.22024
H          7.21762       -1.31401        1.46639
H          7.30680       -3.11094        1.44292
H          8.09673       -2.20121        2.76521
H          4.66790       -4.43270        1.91820
H          1.86214       -5.57039        0.83440
H          3.74512       -5.31256       -1.52918
H          2.60347       -6.67110       -1.04376
H          0.93280       -3.38860       -1.03220
H          1.08410       -1.69590       -1.25430
34

C          1.35423        0.76857        1.08937
C          2.31690        0.14720        0.39480
C          2.91290       -1.19530        0.70210
C          4.03500       -1.15160        1.54280
C          4.68010       -2.31350        1.99260
C          5.90580       -2.27670        2.93860
C          6.33376       -0.83978        3.32688
C          5.57038       -3.02945        4.24527
C          7.11327       -2.94959        2.24880
C          4.16980       -3.54970        1.56660
C          3.06220       -3.65970        0.69930
C          2.59360       -5.02610        0.26080
C          3.01287       -5.68829       -0.83043
C          2.42690       -2.45960        0.24240
N          1.36290       -2.51800       -0.70980
H          1.03605        1.76125        0.78671
H          0.90071        0.35709        1.98025
H          2.75462        0.72001       -0.41952
H          4.38240       -0.18090        1.86440
H          5.51537       -0.31228        3.86323
H          6.61982       -0.25370        2.42673
H          7.21466       -0.86127        4.00462
H          4.70599       -2.55120        4.75477
H          6.43724       -3.01549        4.94111
H          5.31612       -4.09291        4.05685
H          7.37083       -2.41223        1.31061
H          6.90709       -4.01001        1.99579
H          8.00362       -2.93587        2.91443
H          4.66790       -4.43270        1.91820
H          1.86214       -5.57039        0.83440
H          3.74512       -5.31256       -1.52918
H          2.60347       -6.67110       -1.04376
H          0.93280       -3.38860       -1.03220
H          1.08410       -1.69590       -1.25430
34

C          2.63803        0.94420       -0.63327
C          2.31690        0.14720        0.39480
C          2.91290       -1.19530        0.70210
C          4.03500       -1.15160        1.54280
C          4.68010       -2.31350        1.99260
C          5.90580       -2.27670        2.93860
C          5.91134       -1.04868        3.88232
C          5.91042       -3.54218        3.82464
C          7.20410       -2.22502        2.10294
C          4.16980       -3.54970        1.56660
C          3.06220       -3.65970        0.69930
C          2.59360       -5.02610        0.26080
C          1.32909       -5.36361       -0.04280
C          2.42690       -2.45960        0.24240
N          1.36290       -2.51800       -0.70980
H          2.10203        1.87813       -0.77012
H          3.37696        0.68739       -1.37940
H          1.48535        0.48367        1.00972
H          4.38240       -0.18090        1.86440
H          5.01514       -1.04844        4.53999
H          5.94023       -0.10148        3.30134
H          6.80644       -1.06307        4.54138
H          4.98322       -3.58829        4.43591
H          6.78291       -3.53708        4.51353
H          5.97316       -4.47055        3.22024
H          7.21762       -1.31401        1.46639
H          7.30680       -3.11094        1.44292
H          8.09673       -2.20121        2.76521
H          4.66790       -4.43270        1.91820
H          3.28835       -5.84309        0.16006
H          0.49040       -4.68466       -0.00763
H          1.11157       -6.38230       -0.34939
H          0.93280       -3.38860       -1.03220
H          1.08410       -1.69590       -1.25430
34

C          1.35423        0.76857        1.08937
C          2.31690        0.14720        0.39480
C          2.91290       -1.19530        0.70210
C          4.03500       -1.15160        1.54280
C          4.68010       -2.31350        1.99260
C          5.90580       -2.27670        2.93860
C          6.33376       -0.83978        3.32688
C          5.57038       -3.02945        4.24527
C          7.11327       -2.94959        2.24880
C          4.16980       -3.54970        1.56660
C          3.06220       -3.65970        0.69930
C          2.59360       -5.02610        0.26080
C          1.67649       -5.78147        0.88802
C          2.42690       -2.45960        0.24240
N          1.36290       -2.51800       -0.70980
H          1.03605        1.76125        0.78671
H          0.90071        0.35709        1.98025
H          2.75462        0.72001       -0.41952
H          4.38240       -0.18090        1.86440
H          5.51537       -0.31228        3.86323
H          6.61982       -0.25370        2.42673
H          7.21466       -0.86127        4.00462
H          4.70599       -2.55120        4.75477
H          6.43724       -3.01549        4.94111
H          5.31612       -4.09291        4.05685
H          7.37083       -2.41223        1.31061
H          6.90709       -4.01001        1.99579
H          8.00362       -2.93587        2.91443
H          4.66790       -4.43270        1.91820
H          2.98999       -5.48787       -0.62799
H          1.16139       -5.49220        1.79168
H          1.41739       -6.75191        0.47554
H          0.93280       -3.38860       -1.03220
H          1.08410       -1.69590       -1.25430
