
  xtb     02032211353D
 xtb: 6.4.1 (23d549d)
 21 21  0     0  0            999 V2000
    4.0296   -0.3785   -0.0132 C   0  0  0  0  0  0  0  0  0  0  0  0
    3.1790    0.6396   -0.0672 C   0  0  0  0  0  0  0  0  0  0  0  0
    1.7240    0.5573   -0.0351 C   0  0  0  0  0  0  0  0  0  0  0  0
    0.9835    1.7339    0.1183 C   0  0  0  0  0  0  0  0  0  0  0  0
   -0.3923    1.6992    0.1468 C   0  0  0  0  0  0  0  0  0  0  0  0
   -1.0750    0.4854    0.0322 C   0  0  0  0  0  0  0  0  0  0  0  0
   -2.4852    0.5513    0.0110 C   0  0  0  0  0  0  0  0  0  0  0  0
   -3.6232    0.6984   -0.0200 N   0  0  0  0  0  0  0  0  0  0  0  0
   -0.3562   -0.7150   -0.1133 C   0  0  0  0  0  0  0  0  0  0  0  0
   -0.9903   -2.0257   -0.2218 C   0  0  0  0  0  0  0  0  0  0  0  0
   -2.1608   -2.3747    0.2953 C   0  0  0  0  0  0  0  0  0  0  0  0
    1.0323   -0.6448   -0.1605 C   0  0  0  0  0  0  0  0  0  0  0  0
    5.0937   -0.2187   -0.0378 H   0  0  0  0  0  0  0  0  0  0  0  0
    3.7104   -1.4036    0.0657 H   0  0  0  0  0  0  0  0  0  0  0  0
    3.5698    1.6482   -0.1246 H   0  0  0  0  0  0  0  0  0  0  0  0
    1.4974    2.6796    0.2112 H   0  0  0  0  0  0  0  0  0  0  0  0
   -0.9615    2.6117    0.2511 H   0  0  0  0  0  0  0  0  0  0  0  0
   -0.3950   -2.7680   -0.7404 H   0  0  0  0  0  0  0  0  0  0  0  0
   -2.7755   -1.6916    0.8552 H   0  0  0  0  0  0  0  0  0  0  0  0
   -2.5437   -3.3745    0.1813 H   0  0  0  0  0  0  0  0  0  0  0  0
    1.5833   -1.5633   -0.2957 H   0  0  0  0  0  0  0  0  0  0  0  0
  1  2  2  0  0  0  0
  2  3  1  0  0  0  0
  3  4  4  0  0  0  0
  4  5  4  0  0  0  0
  5  6  4  0  0  0  0
  6  7  1  0  0  0  0
  7  8  3  0  0  0  0
  6  9  4  0  0  0  0
  9 10  1  0  0  0  0
 10 11  2  0  0  0  0
  3 12  4  0  0  0  0
  9 12  4  0  0  0  0
  1 13  1  0  0  0  0
  1 14  1  0  0  0  0
  2 15  1  0  0  0  0
  4 16  1  0  0  0  0
  5 17  1  0  0  0  0
 10 18  1  0  0  0  0
 11 19  1  0  0  0  0
 11 20  1  0  0  0  0
 12 21  1  0  0  0  0
M  END
