
 OpenBabel02012213453D

 17 17  0  0  0  0  0  0  0  0999 V2000
    2.5234    1.1104    0.0005 C   0  0  0  0  0  0  0  0  0  0  0  0
    1.2144    0.3782   -0.0074 C   0  0  0  0  0  0  0  0  0  0  0  0
   -0.0046    1.0716   -0.0112 C   0  0  0  0  0  0  0  0  0  0  0  0
   -1.2155    0.3642   -0.0205 C   0  0  0  0  0  0  0  0  0  0  0  0
   -2.5329    1.0813   -0.0264 C   0  0  0  0  0  0  0  0  0  0  0  0
   -1.1800   -1.0363   -0.0253 C   0  0  0  0  0  0  0  0  0  0  0  0
    0.0114   -1.6904   -0.0208 N   0  0  0  0  0  0  0  0  0  0  0  0
    1.1951   -1.0226   -0.0123 C   0  0  0  0  0  0  0  0  0  0  0  0
    2.3743    2.2112    0.0041 H   0  0  0  0  0  0  0  0  0  0  0  0
    3.1081    0.8379   -0.9032 H   0  0  0  0  0  0  0  0  0  0  0  0
    3.1021    0.8309    0.9059 H   0  0  0  0  0  0  0  0  0  0  0  0
   -0.0109    2.1551   -0.0077 H   0  0  0  0  0  0  0  0  0  0  0  0
   -2.3967    2.1837   -0.0201 H   0  0  0  0  0  0  0  0  0  0  0  0
   -3.1184    0.7941    0.8722 H   0  0  0  0  0  0  0  0  0  0  0  0
   -3.1045    0.8029   -0.9369 H   0  0  0  0  0  0  0  0  0  0  0  0
   -2.0996   -1.6074   -0.0325 H   0  0  0  0  0  0  0  0  0  0  0  0
    2.1213   -1.5831   -0.0095 H   0  0  0  0  0  0  0  0  0  0  0  0
  1  2  1  0  0  0  0
  1  9  1  0  0  0  0
  1 10  1  0  0  0  0
  1 11  1  0  0  0  0
  2  3  1  0  0  0  0
  2  8  2  0  0  0  0
  3  4  2  0  0  0  0
  3 12  1  0  0  0  0
  4  5  1  0  0  0  0
  4  6  1  0  0  0  0
  5 13  1  0  0  0  0
  5 14  1  0  0  0  0
  5 15  1  0  0  0  0
  6  7  2  0  0  0  0
  6 16  1  0  0  0  0
  7  8  1  0  0  0  0
  8 17  1  0  0  0  0
M  END
