
  xtb     02012213453D
 xtb: 6.4.1 (23d549d)
 17 17  0     0  0            999 V2000
    2.5194    1.1057    0.0007 c   0  0  0  0  0  0  0  0  0  0  0  0
    1.2035    0.3930   -0.0083 c   0  0  0  0  0  0  0  0  0  0  0  0
   -0.0047    1.0782   -0.0126 c   0  0  0  0  0  0  0  0  0  0  0  0
   -1.2048    0.3791   -0.0211 c   0  0  0  0  0  0  0  0  0  0  0  0
   -2.5289    1.0765   -0.0263 c   0  0  0  0  0  0  0  0  0  0  0  0
   -1.1264   -1.0106   -0.0249 c   0  0  0  0  0  0  0  0  0  0  0  0
    0.0113   -1.6805   -0.0209 n   0  0  0  0  0  0  0  0  0  0  0  0
    1.1412   -0.9975   -0.0128 c   0  0  0  0  0  0  0  0  0  0  0  0
    2.3778    2.1838    0.0047 h   0  0  0  0  0  0  0  0  0  0  0  0
    3.1028    0.8326   -0.8777 h   0  0  0  0  0  0  0  0  0  0  0  0
    3.0951    0.8249    0.8818 h   0  0  0  0  0  0  0  0  0  0  0  0
   -0.0109    2.1608   -0.0094 h   0  0  0  0  0  0  0  0  0  0  0  0
   -2.3998    2.1562   -0.0198 h   0  0  0  0  0  0  0  0  0  0  0  0
   -3.1111    0.7883    0.8481 h   0  0  0  0  0  0  0  0  0  0  0  0
   -3.0992    0.7976   -0.9114 h   0  0  0  0  0  0  0  0  0  0  0  0
   -2.0251   -1.6150   -0.0315 h   0  0  0  0  0  0  0  0  0  0  0  0
    2.0468   -1.5915   -0.0098 h   0  0  0  0  0  0  0  0  0  0  0  0
  1  2  1  0  0  0  0
  2  3  4  0  0  0  0
  3  4  4  0  0  0  0
  4  5  1  0  0  0  0
  4  6  4  0  0  0  0
  6  7  4  0  0  0  0
  2  8  4  0  0  0  0
  7  8  4  0  0  0  0
  1  9  1  0  0  0  0
  1 10  1  0  0  0  0
  1 11  1  0  0  0  0
  3 12  1  0  0  0  0
  5 13  1  0  0  0  0
  5 14  1  0  0  0  0
  5 15  1  0  0  0  0
  6 16  1  0  0  0  0
  8 17  1  0  0  0  0
M  END
