
  xtb     02032211353D
 xtb: 6.4.1 (23d549d)
 28 29  0     0  0            999 V2000
    4.0659   -2.0611    0.0808 C   0  0  0  0  0  0  0  0  0  0  0  0
    4.1720   -0.7397    0.0275 C   0  0  0  0  0  0  0  0  0  0  0  0
    3.0263    0.1642   -0.0075 C   0  0  0  0  0  0  0  0  0  0  0  0
    3.2201    1.5487   -0.0497 C   0  0  0  0  0  0  0  0  0  0  0  0
    2.1129    2.3786   -0.0789 C   0  0  0  0  0  0  0  0  0  0  0  0
    0.8513    1.8125   -0.0657 C   0  0  0  0  0  0  0  0  0  0  0  0
    0.7484    0.4200   -0.0248 C   0  0  0  0  0  0  0  0  0  0  0  0
   -0.5709   -0.2309   -0.0110 C   0  0  0  0  0  0  0  0  0  0  0  0
   -0.6789   -1.6227   -0.0085 C   0  0  0  0  0  0  0  0  0  0  0  0
   -1.9434   -2.1833    0.0032 C   0  0  0  0  0  0  0  0  0  0  0  0
   -3.0501   -1.3529    0.0143 C   0  0  0  0  0  0  0  0  0  0  0  0
   -2.8533    0.0314    0.0126 C   0  0  0  0  0  0  0  0  0  0  0  0
   -3.9397    1.0066    0.0257 C   0  0  0  0  0  0  0  0  0  0  0  0
   -5.2394    0.7433    0.0684 C   0  0  0  0  0  0  0  0  0  0  0  0
   -1.6340    0.5635   -0.0019 N   0  0  0  0  0  0  0  0  0  0  0  0
    1.8107   -0.3740    0.0032 N   0  0  0  0  0  0  0  0  0  0  0  0
    4.9287   -2.7042    0.1064 H   0  0  0  0  0  0  0  0  0  0  0  0
    3.0972   -2.5290    0.1007 H   0  0  0  0  0  0  0  0  0  0  0  0
    5.1425   -0.2607    0.0085 H   0  0  0  0  0  0  0  0  0  0  0  0
    4.2201    1.9560   -0.0585 H   0  0  0  0  0  0  0  0  0  0  0  0
    2.2337    3.4524   -0.1113 H   0  0  0  0  0  0  0  0  0  0  0  0
   -0.0477    2.4056   -0.0862 H   0  0  0  0  0  0  0  0  0  0  0  0
    0.2169   -2.2205   -0.0169 H   0  0  0  0  0  0  0  0  0  0  0  0
   -2.0672   -3.2573    0.0035 H   0  0  0  0  0  0  0  0  0  0  0  0
   -4.0453   -1.7674    0.0225 H   0  0  0  0  0  0  0  0  0  0  0  0
   -3.5926    2.0307    0.0005 H   0  0  0  0  0  0  0  0  0  0  0  0
   -5.6328   -0.2587    0.0981 H   0  0  0  0  0  0  0  0  0  0  0  0
   -5.9697    1.5343    0.0765 H   0  0  0  0  0  0  0  0  0  0  0  0
  1  2  2  0  0  0  0
  2  3  1  0  0  0  0
  3  4  4  0  0  0  0
  4  5  4  0  0  0  0
  5  6  4  0  0  0  0
  6  7  4  0  0  0  0
  7  8  1  0  0  0  0
  8  9  4  0  0  0  0
  9 10  4  0  0  0  0
 10 11  4  0  0  0  0
 11 12  4  0  0  0  0
 12 13  1  0  0  0  0
 13 14  2  0  0  0  0
  8 15  4  0  0  0  0
 12 15  4  0  0  0  0
  3 16  4  0  0  0  0
  7 16  4  0  0  0  0
  1 17  1  0  0  0  0
  1 18  1  0  0  0  0
  2 19  1  0  0  0  0
  4 20  1  0  0  0  0
  5 21  1  0  0  0  0
  6 22  1  0  0  0  0
  9 23  1  0  0  0  0
 10 24  1  0  0  0  0
 11 25  1  0  0  0  0
 13 26  1  0  0  0  0
 14 27  1  0  0  0  0
 14 28  1  0  0  0  0
M  END
