
  xtb     02032211353D
 xtb: 6.4.1 (23d549d)
 32 32  0     0  0            999 V2000
   -3.5252    1.4324    0.6149 C   0  0  0  0  0  0  0  0  0  0  0  0
   -2.3671    1.7059    0.0325 C   0  0  0  0  0  0  0  0  0  0  0  0
   -1.1936    0.8294   -0.0414 C   0  0  0  0  0  0  0  0  0  0  0  0
    0.0457    1.4160    0.2175 C   0  0  0  0  0  0  0  0  0  0  0  0
    1.2337    0.7071    0.2123 C   0  0  0  0  0  0  0  0  0  0  0  0
    2.5314    1.4330    0.4387 C   0  0  0  0  0  0  0  0  0  0  0  0
    3.2064    1.7417   -0.8988 C   0  0  0  0  0  0  0  0  0  0  0  0
    1.1897   -0.6531   -0.1105 C   0  0  0  0  0  0  0  0  0  0  0  0
    2.3836   -1.5141   -0.1551 C   0  0  0  0  0  0  0  0  0  0  0  0
    3.1661   -1.7755    0.8785 C   0  0  0  0  0  0  0  0  0  0  0  0
   -0.0346   -1.2262   -0.4288 C   0  0  0  0  0  0  0  0  0  0  0  0
   -1.2315   -0.5247   -0.3874 C   0  0  0  0  0  0  0  0  0  0  0  0
   -2.4934   -1.2560   -0.7547 C   0  0  0  0  0  0  0  0  0  0  0  0
   -2.9334   -2.2055    0.3613 C   0  0  0  0  0  0  0  0  0  0  0  0
   -4.3235    2.1555    0.6432 H   0  0  0  0  0  0  0  0  0  0  0  0
   -3.7188    0.4950    1.1059 H   0  0  0  0  0  0  0  0  0  0  0  0
   -2.2143    2.6904   -0.3960 H   0  0  0  0  0  0  0  0  0  0  0  0
    0.0722    2.4722    0.4514 H   0  0  0  0  0  0  0  0  0  0  0  0
    3.2080    0.8325    1.0456 H   0  0  0  0  0  0  0  0  0  0  0  0
    2.3364    2.3674    0.9688 H   0  0  0  0  0  0  0  0  0  0  0  0
    3.4391    0.8177   -1.4234 H   0  0  0  0  0  0  0  0  0  0  0  0
    4.1307    2.2929   -0.7410 H   0  0  0  0  0  0  0  0  0  0  0  0
    2.5484    2.3377   -1.5276 H   0  0  0  0  0  0  0  0  0  0  0  0
    2.5682   -1.9971   -1.1083 H   0  0  0  0  0  0  0  0  0  0  0  0
    2.9845   -1.3487    1.8514 H   0  0  0  0  0  0  0  0  0  0  0  0
    4.0109   -2.4391    0.7993 H   0  0  0  0  0  0  0  0  0  0  0  0
   -0.0546   -2.2703   -0.7121 H   0  0  0  0  0  0  0  0  0  0  0  0
   -2.3092   -1.8437   -1.6583 H   0  0  0  0  0  0  0  0  0  0  0  0
   -3.2915   -0.5457   -0.9717 H   0  0  0  0  0  0  0  0  0  0  0  0
   -2.1674   -2.9550    0.5471 H   0  0  0  0  0  0  0  0  0  0  0  0
   -3.8555   -2.7132    0.0865 H   0  0  0  0  0  0  0  0  0  0  0  0
   -3.0996   -1.6617    1.2886 H   0  0  0  0  0  0  0  0  0  0  0  0
  1  2  2  0  0  0  0
  2  3  1  0  0  0  0
  3  4  4  0  0  0  0
  4  5  4  0  0  0  0
  5  6  1  0  0  0  0
  6  7  1  0  0  0  0
  5  8  4  0  0  0  0
  8  9  1  0  0  0  0
  9 10  2  0  0  0  0
  8 11  4  0  0  0  0
  3 12  4  0  0  0  0
 11 12  4  0  0  0  0
 12 13  1  0  0  0  0
 13 14  1  0  0  0  0
  1 15  1  0  0  0  0
  1 16  1  0  0  0  0
  2 17  1  0  0  0  0
  4 18  1  0  0  0  0
  6 19  1  0  0  0  0
  6 20  1  0  0  0  0
  7 21  1  0  0  0  0
  7 22  1  0  0  0  0
  7 23  1  0  0  0  0
  9 24  1  0  0  0  0
 10 25  1  0  0  0  0
 10 26  1  0  0  0  0
 11 27  1  0  0  0  0
 13 28  1  0  0  0  0
 13 29  1  0  0  0  0
 14 30  1  0  0  0  0
 14 31  1  0  0  0  0
 14 32  1  0  0  0  0
M  END
