
 OpenBabel02012214123D

 22 23  0  0  0  0  0  0  0  0999 V2000
    2.2742   -0.1363   -0.0113 C   0  0  0  0  0  0  0  0  0  0  0  0
    0.7925   -0.2857   -0.0227 C   0  0  0  0  0  0  0  0  0  0  0  0
    0.0486   -1.4446   -0.0117 C   0  0  0  0  0  0  0  0  0  0  0  0
   -1.3527   -1.1864    0.0078 C   0  0  0  0  0  0  0  0  0  0  0  0
   -1.6463    0.1646    0.0112 C   0  0  0  0  0  0  0  0  0  0  0  0
   -2.9476    0.7864    0.0731 C   0  0  0  0  0  0  0  0  0  0  0  0
   -3.3435    1.9818   -0.4973 C   0  0  0  0  0  0  0  0  0  0  0  0
   -4.6948    2.3173   -0.1924 C   0  0  0  0  0  0  0  0  0  0  0  0
   -5.2987    1.3701    0.6055 C   0  0  0  0  0  0  0  0  0  0  0  0
   -6.6801    1.3739    1.1620 C   0  0  0  0  0  0  0  0  0  0  0  0
   -4.2425    0.0706    0.9458 S   0  0  0  0  0  0  0  0  0  0  0  0
   -0.2068    1.1003   -0.0461 S   0  0  0  0  0  0  0  0  0  0  0  0
    2.7638   -1.1157   -0.0210 H   0  0  0  0  0  0  0  0  0  0  0  0
    2.6019    0.3914    0.8906 H   0  0  0  0  0  0  0  0  0  0  0  0
    2.6195    0.4203   -0.8885 H   0  0  0  0  0  0  0  0  0  0  0  0
    0.4846   -2.4372   -0.0048 H   0  0  0  0  0  0  0  0  0  0  0  0
   -2.1078   -1.9627    0.0252 H   0  0  0  0  0  0  0  0  0  0  0  0
   -2.6929    2.5990   -1.1052 H   0  0  0  0  0  0  0  0  0  0  0  0
   -5.1912    3.2171   -0.5344 H   0  0  0  0  0  0  0  0  0  0  0  0
   -7.2307    2.2602    0.8297 H   0  0  0  0  0  0  0  0  0  0  0  0
   -6.6551    1.3878    2.2568 H   0  0  0  0  0  0  0  0  0  0  0  0
   -7.2377    0.4904    0.8348 H   0  0  0  0  0  0  0  0  0  0  0  0
  1  2  1  0  0  0  0
  1 13  1  0  0  0  0
  1 14  1  0  0  0  0
  1 15  1  0  0  0  0
  2  3  2  0  0  0  0
  2 12  1  0  0  0  0
  3  4  1  0  0  0  0
  3 16  1  0  0  0  0
  4  5  2  0  0  0  0
  4 17  1  0  0  0  0
  5  6  1  0  0  0  0
  5 12  1  0  0  0  0
  6  7  2  0  0  0  0
  6 11  1  0  0  0  0
  7  8  1  0  0  0  0
  7 18  1  0  0  0  0
  8  9  2  0  0  0  0
  8 19  1  0  0  0  0
  9 10  1  0  0  0  0
  9 11  1  0  0  0  0
 10 20  1  0  0  0  0
 10 21  1  0  0  0  0
 10 22  1  0  0  0  0
M  END
