
  xtb     02032211263D
 xtb: 6.4.1 (23d549d)
 24 25  0     0  0            999 V2000
    1.2151   -1.1571   -1.1445 c   0  0  0  0  0  0  0  0  0  0  0  0
    1.6274    0.0663   -0.8212 c   0  0  0  0  0  0  0  0  0  0  0  0
    2.6334    0.8112   -1.5230 c   0  0  0  0  0  0  0  0  0  0  0  0
    3.0914    2.0709   -1.2222 c   0  0  0  0  0  0  0  0  0  0  0  0
    4.0791    2.5344   -2.0974 c   0  0  0  0  0  0  0  0  0  0  0  0
    4.3939    1.6327   -3.0863 c   0  0  0  0  0  0  0  0  0  0  0  0
    5.3435    1.7748   -4.1371 c   0  0  0  0  0  0  0  0  0  0  0  0
    5.6697    0.8716   -5.1219 c   0  0  0  0  0  0  0  0  0  0  0  0
    6.6506    1.3381   -6.0023 c   0  0  0  0  0  0  0  0  0  0  0  0
    7.0945    2.6054   -5.7105 c   0  0  0  0  0  0  0  0  0  0  0  0
    8.0797    3.4183   -6.3688 c   0  0  0  0  0  0  0  0  0  0  0  0
    8.7687    3.0667   -7.4520 c   0  0  0  0  0  0  0  0  0  0  0  0
    6.2752    3.2330   -4.3086 s   0  0  0  0  0  0  0  0  0  0  0  0
    3.4472    0.1809   -2.9268 s   0  0  0  0  0  0  0  0  0  0  0  0
    0.4542   -1.6651   -0.5797 h   0  0  0  0  0  0  0  0  0  0  0  0
    1.6296   -1.6838   -1.9877 h   0  0  0  0  0  0  0  0  0  0  0  0
    1.1998    0.5811    0.0298 h   0  0  0  0  0  0  0  0  0  0  0  0
    2.7198    2.6410   -0.3889 h   0  0  0  0  0  0  0  0  0  0  0  0
    4.5546    3.4962   -2.0193 h   0  0  0  0  0  0  0  0  0  0  0  0
    5.2051   -0.0963   -5.1926 h   0  0  0  0  0  0  0  0  0  0  0  0
    7.0233    0.7606   -6.8288 h   0  0  0  0  0  0  0  0  0  0  0  0
    8.2455    4.3883   -5.9181 h   0  0  0  0  0  0  0  0  0  0  0  0
    8.6342    2.1137   -7.9333 h   0  0  0  0  0  0  0  0  0  0  0  0
    9.4938    3.7286   -7.8912 h   0  0  0  0  0  0  0  0  0  0  0  0
  1  2  2  0  0  0  0
  2  3  1  0  0  0  0
  3  4  4  0  0  0  0
  4  5  4  0  0  0  0
  5  6  4  0  0  0  0
  6  7  1  0  0  0  0
  7  8  4  0  0  0  0
  8  9  4  0  0  0  0
  9 10  4  0  0  0  0
 10 11  1  0  0  0  0
 11 12  2  0  0  0  0
  7 13  1  0  0  0  0
 10 13  1  0  0  0  0
  3 14  1  0  0  0  0
  6 14  1  0  0  0  0
  1 15  1  0  0  0  0
  1 16  1  0  0  0  0
  2 17  1  0  0  0  0
  4 18  1  0  0  0  0
  5 19  1  0  0  0  0
  8 20  1  0  0  0  0
  9 21  1  0  0  0  0
 11 22  1  0  0  0  0
 12 23  1  0  0  0  0
 12 24  1  0  0  0  0
M  END
