 xtb: 6.5.0 (unknown)
          08122213093D

 27  0  0     0  0            999 V2000
   -3.6562    1.5940   -0.7204 C   0  0  0  0  0  0  0  0  0  0  0  0
   -2.3409    1.4896   -0.8570 C   0  0  0  0  0  0  0  0  0  0  0  0
   -1.5217    0.3777   -0.3832 C   0  0  0  0  0  0  0  0  0  0  0  0
   -2.0617   -0.8833   -0.1452 C   0  0  0  0  0  0  0  0  0  0  0  0
   -1.2576   -1.9094    0.3141 C   0  0  0  0  0  0  0  0  0  0  0  0
   -1.9505   -3.4604    0.6360 Cl  0  0  0  0  0  0  0  0  0  0  0  0
    0.0979   -1.7183    0.5069 C   0  0  0  0  0  0  0  0  0  0  0  0
    0.6693   -0.4777    0.2354 C   0  0  0  0  0  0  0  0  0  0  0  0
    2.1204   -0.3434    0.3879 C   0  0  0  0  0  0  0  0  0  0  0  0
    2.9272    0.2706   -0.4621 C   0  0  0  0  0  0  0  0  0  0  0  0
    2.6037    0.8681   -1.5942 F   0  0  0  0  0  0  0  0  0  0  0  0
    4.2461    0.3442   -0.2881 F   0  0  0  0  0  0  0  0  0  0  0  0
   -0.1461    0.5849   -0.1759 C   0  0  0  0  0  0  0  0  0  0  0  0
    0.3746    1.8366   -0.3923 O   0  0  0  0  0  0  0  0  0  0  0  0
    0.7789    2.5512    0.7660 C   0  0  0  0  0  0  0  0  0  0  0  0
   -0.4039    2.9881    1.6236 C   0  0  0  0  0  0  0  0  0  0  0  0
   -4.1905    2.4493   -1.0964 H   0  0  0  0  0  0  0  0  0  0  0  0
   -4.2507    0.8465   -0.2228 H   0  0  0  0  0  0  0  0  0  0  0  0
   -1.7802    2.2821   -1.3329 H   0  0  0  0  0  0  0  0  0  0  0  0
   -3.1098   -1.0617   -0.3214 H   0  0  0  0  0  0  0  0  0  0  0  0
    0.7202   -2.5343    0.8391 H   0  0  0  0  0  0  0  0  0  0  0  0
    2.5843   -0.8353    1.2300 H   0  0  0  0  0  0  0  0  0  0  0  0
    1.3126    3.4211    0.3765 H   0  0  0  0  0  0  0  0  0  0  0  0
    1.4714    1.9498    1.3701 H   0  0  0  0  0  0  0  0  0  0  0  0
   -1.0961    3.5858    1.0364 H   0  0  0  0  0  0  0  0  0  0  0  0
   -0.0467    3.5802    2.4615 H   0  0  0  0  0  0  0  0  0  0  0  0
   -0.9359    2.1195    2.0071 H   0  0  0  0  0  0  0  0  0  0  0  0
M  END
