20

C          1.19674       -0.44708       -1.18551
C          2.19200        0.02420       -0.42280
C          3.00810        1.23250       -0.73460
C          4.20130        1.17940       -1.47830
C          4.92540        2.34280       -1.73290
C          4.47150        3.57320       -1.25710
C          3.27970        3.66470       -0.51920
C          2.85810        5.02430       -0.06010
C          2.15968        5.33162        1.04738
F          1.71572        4.40463        1.93101
F          1.86232        6.63421        1.29304
C          2.55680        2.47990       -0.26020
H          0.65975       -1.33634       -0.86904
H          0.88956        0.01910       -2.11041
H          2.41213       -0.51850        0.49253
H          4.59190        0.25070       -1.86610
H          5.84320        2.29350       -2.30350
H          5.05420        4.46040       -1.47420
H          3.13425        5.86156       -0.69559
H          1.64510        2.49440        0.30850
20

C          1.19674       -0.44708       -1.18551
C          2.19200        0.02420       -0.42280
C          3.00810        1.23250       -0.73460
C          4.20130        1.17940       -1.47830
C          4.92540        2.34280       -1.73290
C          4.47150        3.57320       -1.25710
C          3.27970        3.66470       -0.51920
C          2.85810        5.02430       -0.06010
C          1.60316        5.46829        0.13158
F          0.50150        4.70916       -0.08587
F          1.41823        6.74847        0.54685
C          2.55680        2.47990       -0.26020
H          0.65975       -1.33634       -0.86904
H          0.88956        0.01910       -2.11041
H          2.41213       -0.51850        0.49253
H          4.59190        0.25070       -1.86610
H          5.84320        2.29350       -2.30350
H          5.05420        4.46040       -1.47420
H          3.65088        5.74290        0.13024
H          1.64510        2.49440        0.30850
20

C          2.33861       -0.74016        0.66744
C          2.19200        0.02420       -0.42280
C          3.00810        1.23250       -0.73460
C          4.20130        1.17940       -1.47830
C          4.92540        2.34280       -1.73290
C          4.47150        3.57320       -1.25710
C          3.27970        3.66470       -0.51920
C          2.85810        5.02430       -0.06010
C          2.07206        5.89883       -0.71285
F          1.54069        5.65612       -1.93594
F          1.80563        7.09826       -0.13329
C          2.55680        2.47990       -0.26020
H          1.69345       -1.60322        0.80234
H          3.07893       -0.54605        1.42992
H          1.42058       -0.26758       -1.13033
H          4.59190        0.25070       -1.86610
H          5.84320        2.29350       -2.30350
H          5.05420        4.46040       -1.47420
H          3.23646        5.35305        0.90420
H          1.64510        2.49440        0.30850
20

C          2.33861       -0.74016        0.66744
C          2.19200        0.02420       -0.42280
C          3.00810        1.23250       -0.73460
C          4.20130        1.17940       -1.47830
C          4.92540        2.34280       -1.73290
C          4.47150        3.57320       -1.25710
C          3.27970        3.66470       -0.51920
C          2.85810        5.02430       -0.06010
C          3.17335        5.62838        1.09940
F          3.94349        5.05349        2.05523
F          2.68444        6.87216        1.34334
C          2.55680        2.47990       -0.26020
H          1.69345       -1.60322        0.80234
H          3.07893       -0.54605        1.42992
H          1.42058       -0.26758       -1.13033
H          4.59190        0.25070       -1.86610
H          5.84320        2.29350       -2.30350
H          5.05420        4.46040       -1.47420
H          2.21412        5.58786       -0.73002
H          1.64510        2.49440        0.30850
20

C          1.19674       -0.44708       -1.18551
C          2.19200        0.02420       -0.42280
C          3.00810        1.23250       -0.73460
C          4.20130        1.17940       -1.47830
C          4.92540        2.34280       -1.73290
C          4.47150        3.57320       -1.25710
C          3.27970        3.66470       -0.51920
C          2.85810        5.02430       -0.06010
C          2.07206        5.89883       -0.71285
F          1.54069        5.65612       -1.93594
F          1.80563        7.09826       -0.13329
C          2.55680        2.47990       -0.26020
H          0.65975       -1.33634       -0.86904
H          0.88956        0.01910       -2.11041
H          2.41213       -0.51850        0.49253
H          4.59190        0.25070       -1.86610
H          5.84320        2.29350       -2.30350
H          5.05420        4.46040       -1.47420
H          3.23646        5.35305        0.90420
H          1.64510        2.49440        0.30850
20

C          0.86215        0.01720       -0.26209
C          2.19200        0.02420       -0.42280
C          3.00810        1.23250       -0.73460
C          4.20130        1.17940       -1.47830
C          4.92540        2.34280       -1.73290
C          4.47150        3.57320       -1.25710
C          3.27970        3.66470       -0.51920
C          2.85810        5.02430       -0.06010
C          3.17335        5.62838        1.09940
F          3.94349        5.05349        2.05523
F          2.68444        6.87216        1.34334
C          2.55680        2.47990       -0.26020
H          0.35909       -0.91785       -0.03422
H          0.25264        0.90557       -0.34220
H          2.70780       -0.92579       -0.31191
H          4.59190        0.25070       -1.86610
H          5.84320        2.29350       -2.30350
H          5.05420        4.46040       -1.47420
H          2.21412        5.58786       -0.73002
H          1.64510        2.49440        0.30850
20

C          1.43918       -0.13091        0.67428
C          2.19200        0.02420       -0.42280
C          3.00810        1.23250       -0.73460
C          4.20130        1.17940       -1.47830
C          4.92540        2.34280       -1.73290
C          4.47150        3.57320       -1.25710
C          3.27970        3.66470       -0.51920
C          2.85810        5.02430       -0.06010
C          3.17335        5.62838        1.09940
F          3.94349        5.05349        2.05523
F          2.68444        6.87216        1.34334
C          2.55680        2.47990       -0.26020
H          0.88146       -1.05271        0.81038
H          1.35901        0.61998        1.44685
H          2.20673       -0.79898       -1.13200
H          4.59190        0.25070       -1.86610
H          5.84320        2.29350       -2.30350
H          5.05420        4.46040       -1.47420
H          2.21412        5.58786       -0.73002
H          1.64510        2.49440        0.30850
20

C          2.33861       -0.74016        0.66744
C          2.19200        0.02420       -0.42280
C          3.00810        1.23250       -0.73460
C          4.20130        1.17940       -1.47830
C          4.92540        2.34280       -1.73290
C          4.47150        3.57320       -1.25710
C          3.27970        3.66470       -0.51920
C          2.85810        5.02430       -0.06010
C          1.60316        5.46829        0.13158
F          0.50150        4.70916       -0.08587
F          1.41823        6.74847        0.54685
C          2.55680        2.47990       -0.26020
H          1.69345       -1.60322        0.80234
H          3.07893       -0.54605        1.42992
H          1.42058       -0.26758       -1.13033
H          4.59190        0.25070       -1.86610
H          5.84320        2.29350       -2.30350
H          5.05420        4.46040       -1.47420
H          3.65088        5.74290        0.13024
H          1.64510        2.49440        0.30850
20

C          2.33861       -0.74016        0.66744
C          2.19200        0.02420       -0.42280
C          3.00810        1.23250       -0.73460
C          4.20130        1.17940       -1.47830
C          4.92540        2.34280       -1.73290
C          4.47150        3.57320       -1.25710
C          3.27970        3.66470       -0.51920
C          2.85810        5.02430       -0.06010
C          3.65237        6.06821        0.23675
F          5.00509        6.02088        0.16525
F          3.08020        7.22950        0.64853
C          2.55680        2.47990       -0.26020
H          1.69345       -1.60322        0.80234
H          3.07893       -0.54605        1.42992
H          1.42058       -0.26758       -1.13033
H          4.59190        0.25070       -1.86610
H          5.84320        2.29350       -2.30350
H          5.05420        4.46040       -1.47420
H          1.79076        5.18960        0.06063
H          1.64510        2.49440        0.30850
20

C          1.19674       -0.44708       -1.18551
C          2.19200        0.02420       -0.42280
C          3.00810        1.23250       -0.73460
C          4.20130        1.17940       -1.47830
C          4.92540        2.34280       -1.73290
C          4.47150        3.57320       -1.25710
C          3.27970        3.66470       -0.51920
C          2.85810        5.02430       -0.06010
C          3.10760        6.20200       -0.65970
F          3.81651        6.31898       -1.80904
F          2.64548        7.34134       -0.08191
C          2.55680        2.47990       -0.26020
H          0.65975       -1.33634       -0.86904
H          0.88956        0.01910       -2.11041
H          2.41213       -0.51850        0.49253
H          4.59190        0.25070       -1.86610
H          5.84320        2.29350       -2.30350
H          5.05420        4.46040       -1.47420
H          2.29648        5.07345        0.86903
H          1.64510        2.49440        0.30850
