24

C          1.10711        0.25437       -0.26998
C          2.30410       -0.33820       -0.16610
C          3.11930       -0.36940        1.08370
C          3.00500       -1.40960        2.03670
C          3.80730       -1.25750        3.15090
S          4.66490        0.16150        2.97520
C          4.04790        0.62730        1.47620
C          4.51210        1.83680        0.72160
S          4.99225        3.27548        1.45996
C          5.26067        4.16979        0.07937
C          4.98391        3.36470       -1.00981
C          4.56346        2.05445       -0.67769
C          4.25492        1.02812       -1.71814
C          4.44300       -0.28760       -1.55647
H          0.58529        0.24022       -1.22172
H          0.62126        0.75046        0.55954
H          2.67761       -0.79281       -1.06791
H          2.34930       -2.26220        1.94180
H          3.86570       -1.93770        3.99000
H          5.59586        5.19741        0.04025
H          5.10044        3.73821       -2.01461
H          3.83306        1.32498       -2.66377
H          4.85375       -0.71864       -0.65310
H          4.18026       -0.96781       -2.36097
24

C          1.10711        0.25437       -0.26998
C          2.30410       -0.33820       -0.16610
C          3.11930       -0.36940        1.08370
C          3.00500       -1.40960        2.03670
C          3.80730       -1.25750        3.15090
S          4.66490        0.16150        2.97520
C          4.04790        0.62730        1.47620
C          4.51210        1.83680        0.72160
S          4.99225        3.27548        1.45996
C          5.26067        4.16979        0.07937
C          4.98391        3.36470       -1.00981
C          4.56346        2.05445       -0.67769
C          4.25492        1.02812       -1.71814
C          4.81760        0.99486       -2.93260
H          0.58529        0.24022       -1.22172
H          0.62126        0.75046        0.55954
H          2.67761       -0.79281       -1.06791
H          2.34930       -2.26220        1.94180
H          3.86570       -1.93770        3.99000
H          5.59586        5.19741        0.04025
H          5.10044        3.73821       -2.01461
H          3.55617        0.23589       -1.50736
H          5.53930        1.72730       -3.26915
H          4.54531        0.20515       -3.62627
24

C          1.07746       -0.86490       -0.27858
C          2.30410       -0.33820       -0.16610
C          3.11930       -0.36940        1.08370
C          3.00500       -1.40960        2.03670
C          3.80730       -1.25750        3.15090
S          4.66490        0.16150        2.97520
C          4.04790        0.62730        1.47620
C          4.51210        1.83680        0.72160
S          5.64593        2.93505        1.31642
C          5.60004        4.02540        0.05670
C          4.69227        3.55995       -0.87625
C          4.06998        2.33703       -0.52833
C          3.08838        1.65792       -1.42630
C          3.42425        0.79026       -2.38910
H          0.54808       -0.78801       -1.22312
H          0.57916       -1.37661        0.53390
H          2.68421        0.14750       -1.04874
H          2.34930       -2.26220        1.94180
H          3.86570       -1.93770        3.99000
H          6.18001        4.93506       -0.02091
H          4.50830        4.10767       -1.78668
H          2.03261        1.83597       -1.30819
H          4.44841        0.51883       -2.60820
H          2.64528        0.33128       -2.99035
24

C          2.68434       -0.88759       -1.32727
C          2.30410       -0.33820       -0.16610
C          3.11930       -0.36940        1.08370
C          3.00500       -1.40960        2.03670
C          3.80730       -1.25750        3.15090
S          4.66490        0.16150        2.97520
C          4.04790        0.62730        1.47620
C          4.51210        1.83680        0.72160
S          5.64593        2.93505        1.31642
C          5.60004        4.02540        0.05670
C          4.69227        3.55995       -0.87625
C          4.06998        2.33703       -0.52833
C          3.08838        1.65792       -1.42630
C          3.42425        0.79026       -2.38910
H          2.02412       -0.82923       -2.18692
H          3.63307       -1.39056       -1.45841
H          1.33401        0.12910       -0.16851
H          2.34930       -2.26220        1.94180
H          3.86570       -1.93770        3.99000
H          6.18001        4.93506       -0.02091
H          4.50830        4.10767       -1.78668
H          2.03261        1.83597       -1.30819
H          4.44841        0.51883       -2.60820
H          2.64528        0.33128       -2.99035
24

C          2.71337        0.20805       -1.31885
C          2.30410       -0.33820       -0.16610
C          3.11930       -0.36940        1.08370
C          3.00500       -1.40960        2.03670
C          3.80730       -1.25750        3.15090
S          4.66490        0.16150        2.97520
C          4.04790        0.62730        1.47620
C          4.51210        1.83680        0.72160
S          4.59634        1.91685       -0.96126
C          5.26459        3.43820       -1.09084
C          5.44137        3.93568        0.18679
C          5.02798        3.05938        1.21879
C          5.10562        3.43467        2.66248
C          4.13837        4.08122        3.32507
H          2.06054        0.17728       -2.18555
H          3.67428        0.69160       -1.43331
H          1.32756       -0.79136       -0.18728
H          2.34930       -2.26220        1.94180
H          3.86570       -1.93770        3.99000
H          5.51323        3.94932       -2.01107
H          5.85460        4.91939        0.34256
H          5.97013        3.16633        3.24636
H          3.21644        4.40245        2.85875
H          4.27059        4.30533        4.37922
24

C          2.68434       -0.88759       -1.32727
C          2.30410       -0.33820       -0.16610
C          3.11930       -0.36940        1.08370
C          3.00500       -1.40960        2.03670
C          3.80730       -1.25750        3.15090
S          4.66490        0.16150        2.97520
C          4.04790        0.62730        1.47620
C          4.51210        1.83680        0.72160
S          6.04629        2.51692        0.89251
C          5.83595        3.82724       -0.11579
C          4.55127        3.77187       -0.62333
C          3.78992        2.66765       -0.17068
C          2.39320        2.41713       -0.63705
C          1.73199        3.20760       -1.49179
H          2.02412       -0.82923       -2.18692
H          3.63307       -1.39056       -1.45841
H          1.33401        0.12910       -0.16851
H          2.34930       -2.26220        1.94180
H          3.86570       -1.93770        3.99000
H          6.57412        4.58590       -0.33811
H          4.19861        4.52217       -1.31282
H          1.85883        1.54358       -0.30289
H          2.15546        4.11230       -1.90748
H          0.72114        2.94558       -1.78922
24

C          2.68434       -0.88759       -1.32727
C          2.30410       -0.33820       -0.16610
C          3.11930       -0.36940        1.08370
C          3.00500       -1.40960        2.03670
C          3.80730       -1.25750        3.15090
S          4.66490        0.16150        2.97520
C          4.04790        0.62730        1.47620
C          4.51210        1.83680        0.72160
S          4.99225        3.27548        1.45996
C          5.26067        4.16979        0.07937
C          4.98391        3.36470       -1.00981
C          4.56346        2.05445       -0.67769
C          4.25492        1.02812       -1.71814
C          3.03778        0.82578       -2.23802
H          2.02412       -0.82923       -2.18692
H          3.63307       -1.39056       -1.45841
H          1.33401        0.12910       -0.16851
H          2.34930       -2.26220        1.94180
H          3.86570       -1.93770        3.99000
H          5.59586        5.19741        0.04025
H          5.10044        3.73821       -2.01461
H          5.03973        0.40654       -2.11563
H          2.16432        1.38587       -1.93151
H          2.90227        0.06524       -3.00101
24

C          1.10711        0.25437       -0.26998
C          2.30410       -0.33820       -0.16610
C          3.11930       -0.36940        1.08370
C          3.00500       -1.40960        2.03670
C          3.80730       -1.25750        3.15090
S          4.66490        0.16150        2.97520
C          4.04790        0.62730        1.47620
C          4.51210        1.83680        0.72160
S          3.56455        2.65939       -0.40579
C          4.70146        3.77351       -0.89980
C          5.86487        3.53711       -0.19153
C          5.78518        2.45912        0.72249
C          6.92803        2.07499        1.60420
C          7.15663        2.60335        2.81301
H          0.58529        0.24022       -1.22172
H          0.62126        0.75046        0.55954
H          2.67761       -0.79281       -1.06791
H          2.34930       -2.26220        1.94180
H          3.86570       -1.93770        3.99000
H          4.55563        4.54791       -1.64070
H          6.73738        4.15199       -0.34441
H          7.62158        1.31261        1.29105
H          6.53300        3.37276        3.24854
H          8.00552        2.25802        3.39531
24

C          1.10711        0.25437       -0.26998
C          2.30410       -0.33820       -0.16610
C          3.11930       -0.36940        1.08370
C          3.00500       -1.40960        2.03670
C          3.80730       -1.25750        3.15090
S          4.66490        0.16150        2.97520
C          4.04790        0.62730        1.47620
C          4.51210        1.83680        0.72160
S          4.99225        3.27548        1.45996
C          5.26067        4.16979        0.07937
C          4.98391        3.36470       -1.00981
C          4.56346        2.05445       -0.67769
C          4.25492        1.02812       -1.71814
C          3.03778        0.82578       -2.23802
H          0.58529        0.24022       -1.22172
H          0.62126        0.75046        0.55954
H          2.67761       -0.79281       -1.06791
H          2.34930       -2.26220        1.94180
H          3.86570       -1.93770        3.99000
H          5.59586        5.19741        0.04025
H          5.10044        3.73821       -2.01461
H          5.03973        0.40654       -2.11563
H          2.16432        1.38587       -1.93151
H          2.90227        0.06524       -3.00101
24

C          2.68434       -0.88759       -1.32727
C          2.30410       -0.33820       -0.16610
C          3.11930       -0.36940        1.08370
C          3.00500       -1.40960        2.03670
C          3.80730       -1.25750        3.15090
S          4.66490        0.16150        2.97520
C          4.04790        0.62730        1.47620
C          4.51210        1.83680        0.72160
S          3.97170        2.24216       -0.82409
C          4.94030        3.57618       -1.06917
C          5.72005        3.74910        0.05917
C          5.49954        2.78935        1.07606
C          6.22035        2.83284        2.38359
C          5.70120        2.41137        3.54354
H          2.02412       -0.82923       -2.18692
H          3.63307       -1.39056       -1.45841
H          1.33401        0.12910       -0.16851
H          2.34930       -2.26220        1.94180
H          3.86570       -1.93770        3.99000
H          4.95503        4.20001       -1.95263
H          6.42044        4.56634        0.12475
H          7.23170        3.20034        2.43284
H          4.69864        2.01434        3.63201
H          6.29901        2.46723        4.44822
