
 OpenBabel02032210453D

 40 43  0  0  0  0  0  0  0  0999 V2000
    1.6329    0.2263    1.1528 F   0  0  0  0  0  0  0  0  0  0  0  0
    2.2786    0.0393   -0.0343 C   0  0  0  0  0  0  0  0  0  0  0  0
    1.3973    0.4130   -1.0009 F   0  0  0  0  0  0  0  0  0  0  0  0
    3.2777    0.9643   -0.0549 F   0  0  0  0  0  0  0  0  0  0  0  0
    2.7875   -1.3683   -0.2196 C   0  0  0  0  0  0  0  0  0  0  0  0
    2.5317   -2.3475    0.7533 C   0  0  0  0  0  0  0  0  0  0  0  0
    3.0866   -3.6366    0.6935 C   0  0  0  0  0  0  0  0  0  0  0  0
    2.8974   -4.5929    1.7676 N   0  0  0  0  0  0  0  0  0  0  0  0
    2.6091   -5.9585    1.3696 C   0  0  0  0  0  0  0  0  0  0  0  0
    3.2048   -6.5344    0.2285 C   0  0  0  0  0  0  0  0  0  0  0  0
    4.3959   -5.6372   -0.7493 S   0  0  0  0  0  0  0  0  0  0  0  0
    2.8929   -7.8489   -0.1472 C   0  0  0  0  0  0  0  0  0  0  0  0
    1.9822   -8.5992    0.5960 C   0  0  0  0  0  0  0  0  0  0  0  0
    1.3816   -8.0428    1.7213 C   0  0  0  0  0  0  0  0  0  0  0  0
    1.6848   -6.7324    2.1002 C   0  0  0  0  0  0  0  0  0  0  0  0
    3.2887   -4.2902    3.1412 C   0  0  0  0  0  0  0  0  0  0  0  0
    3.3510   -2.9876    3.6626 C   0  0  0  0  0  0  0  0  0  0  0  0
    3.8019   -2.7099    4.9569 C   0  0  0  0  0  0  0  0  0  0  0  0
    4.2173   -3.7326    5.8061 C   0  0  0  0  0  0  0  0  0  0  0  0
    4.7487   -3.3558    7.1174 C   0  0  0  0  0  0  0  0  0  0  0  0
    4.6934   -4.0782    8.2368 C   0  0  0  0  0  0  0  0  0  0  0  0
    4.1024   -5.2908    8.2682 F   0  0  0  0  0  0  0  0  0  0  0  0
    5.2182   -3.5660    9.3699 F   0  0  0  0  0  0  0  0  0  0  0  0
    4.1680   -5.0410    5.3239 C   0  0  0  0  0  0  0  0  0  0  0  0
    3.7161   -5.3102    4.0187 C   0  0  0  0  0  0  0  0  0  0  0  0
    3.7841   -3.9838   -0.4817 C   0  0  0  0  0  0  0  0  0  0  0  0
    3.9971   -3.0331   -1.4916 C   0  0  0  0  0  0  0  0  0  0  0  0
    3.5244   -1.7263   -1.3529 C   0  0  0  0  0  0  0  0  0  0  0  0
    1.8565   -2.0943    1.5678 H   0  0  0  0  0  0  0  0  0  0  0  0
    3.3558   -8.2955   -1.0245 H   0  0  0  0  0  0  0  0  0  0  0  0
    1.7406   -9.6149    0.2938 H   0  0  0  0  0  0  0  0  0  0  0  0
    0.6722   -8.6259    2.3036 H   0  0  0  0  0  0  0  0  0  0  0  0
    1.1907   -6.3106    2.9726 H   0  0  0  0  0  0  0  0  0  0  0  0
    3.0671   -2.1113    3.1025 H   0  0  0  0  0  0  0  0  0  0  0  0
    3.8297   -1.6718    5.2842 H   0  0  0  0  0  0  0  0  0  0  0  0
    5.2192   -2.3748    7.1744 H   0  0  0  0  0  0  0  0  0  0  0  0
    4.5045   -5.8738    5.9343 H   0  0  0  0  0  0  0  0  0  0  0  0
    3.7544   -6.3477    3.6958 H   0  0  0  0  0  0  0  0  0  0  0  0
    4.5341   -3.3074   -2.3985 H   0  0  0  0  0  0  0  0  0  0  0  0
    3.7132   -1.0002   -2.1405 H   0  0  0  0  0  0  0  0  0  0  0  0
  1  2  1  0  0  0  0
  2  3  1  0  0  0  0
  2  4  1  0  0  0  0
  2  5  1  0  0  0  0
  5  6  1  0  0  0  0
  5 28  2  0  0  0  0
  6  7  2  0  0  0  0
  6 29  1  0  0  0  0
  7  8  1  0  0  0  0
  7 26  1  0  0  0  0
  8  9  1  0  0  0  0
  8 16  1  0  0  0  0
  9 10  1  0  0  0  0
  9 15  2  0  0  0  0
 10 11  1  0  0  0  0
 10 12  2  0  0  0  0
 11 26  1  0  0  0  0
 12 13  1  0  0  0  0
 12 30  1  0  0  0  0
 13 14  2  0  0  0  0
 13 31  1  0  0  0  0
 14 15  1  0  0  0  0
 14 32  1  0  0  0  0
 15 33  1  0  0  0  0
 16 17  1  0  0  0  0
 16 25  2  0  0  0  0
 17 18  2  0  0  0  0
 17 34  1  0  0  0  0
 18 19  1  0  0  0  0
 18 35  1  0  0  0  0
 19 20  1  0  0  0  0
 19 24  2  0  0  0  0
 20 21  2  0  0  0  0
 20 36  1  0  0  0  0
 21 22  1  0  0  0  0
 21 23  1  0  0  0  0
 24 25  1  0  0  0  0
 24 37  1  0  0  0  0
 25 38  1  0  0  0  0
 26 27  2  0  0  0  0
 27 28  1  0  0  0  0
 27 39  1  0  0  0  0
 28 40  1  0  0  0  0
M  END
