
 OpenBabel02032211183D

 16 16  0  0  0  0  0  0  0  0999 V2000
    1.4036    0.8181   -0.2670 C   0  0  0  0  0  0  0  0  0  0  0  0
    2.4050   -0.0519   -0.0982 C   0  0  0  0  0  0  0  0  0  0  0  0
    3.0840   -0.7352   -1.2177 C   0  0  0  0  0  0  0  0  0  0  0  0
    2.8270   -0.6068   -2.5831 C   0  0  0  0  0  0  0  0  0  0  0  0
    3.6188   -1.3699   -3.3829 N   0  0  0  0  0  0  0  0  0  0  0  0
    4.5038   -2.1043   -2.6706 C   0  0  0  0  0  0  0  0  0  0  0  0
    5.4872   -3.0258   -3.2645 C   0  0  0  0  0  0  0  0  0  0  0  0
    5.5818   -3.2130   -4.5841 C   0  0  0  0  0  0  0  0  0  0  0  0
    4.3402   -1.8362   -1.0189 S   0  0  0  0  0  0  0  0  0  0  0  0
    0.9462    1.2857    0.5990 H   0  0  0  0  0  0  0  0  0  0  0  0
    1.0256    1.0773   -1.2491 H   0  0  0  0  0  0  0  0  0  0  0  0
    2.7367   -0.2694    0.9126 H   0  0  0  0  0  0  0  0  0  0  0  0
    2.0661    0.0386   -2.9979 H   0  0  0  0  0  0  0  0  0  0  0  0
    6.1567   -3.5714   -2.6063 H   0  0  0  0  0  0  0  0  0  0  0  0
    4.9325   -2.6887   -5.2787 H   0  0  0  0  0  0  0  0  0  0  0  0
    6.3204   -3.9021   -4.9807 H   0  0  0  0  0  0  0  0  0  0  0  0
  1  2  2  0  0  0  0
  1 10  1  0  0  0  0
  1 11  1  0  0  0  0
  2  3  1  0  0  0  0
  2 12  1  0  0  0  0
  3  4  2  0  0  0  0
  3  9  1  0  0  0  0
  4  5  1  0  0  0  0
  4 13  1  0  0  0  0
  5  6  2  0  0  0  0
  6  7  1  0  0  0  0
  6  9  1  0  0  0  0
  7  8  2  0  0  0  0
  7 14  1  0  0  0  0
  8 15  1  0  0  0  0
  8 16  1  0  0  0  0
M  END
