
 OpenBabel02032211183D

 16 16  0  0  0  0  0  0  0  0999 V2000
    1.4109    0.7658   -0.2533 C   0  0  0  0  0  0  0  0  0  0  0  0
    2.4426   -0.0790   -0.1285 C   0  0  0  0  0  0  0  0  0  0  0  0
    3.0727   -0.6861   -1.2502 C   0  0  0  0  0  0  0  0  0  0  0  0
    2.8586   -0.5626   -2.6121 C   0  0  0  0  0  0  0  0  0  0  0  0
    3.6555   -1.3299   -3.4375 N   0  0  0  0  0  0  0  0  0  0  0  0
    4.4941   -2.0565   -2.7261 C   0  0  0  0  0  0  0  0  0  0  0  0
    5.4505   -2.9860   -3.2277 C   0  0  0  0  0  0  0  0  0  0  0  0
    5.5572   -3.2249   -4.5423 C   0  0  0  0  0  0  0  0  0  0  0  0
    4.3607   -1.8111   -1.0190 S   0  0  0  0  0  0  0  0  0  0  0  0
    0.9535    1.2019    0.6304 H   0  0  0  0  0  0  0  0  0  0  0  0
    0.9849    1.0502   -1.2087 H   0  0  0  0  0  0  0  0  0  0  0  0
    2.8065   -0.3161    0.8691 H   0  0  0  0  0  0  0  0  0  0  0  0
    2.1172    0.0793   -3.0708 H   0  0  0  0  0  0  0  0  0  0  0  0
    6.0965   -3.5124   -2.5322 H   0  0  0  0  0  0  0  0  0  0  0  0
    4.9251   -2.7186   -5.2676 H   0  0  0  0  0  0  0  0  0  0  0  0
    6.2807   -3.9380   -4.9220 H   0  0  0  0  0  0  0  0  0  0  0  0
  1  2  2  0  0  0  0
  1 10  1  0  0  0  0
  1 11  1  0  0  0  0
  2  3  1  0  0  0  0
  2 12  1  0  0  0  0
  3  4  2  0  0  0  0
  3  9  1  0  0  0  0
  4  5  1  0  0  0  0
  4 13  1  0  0  0  0
  5  6  2  0  0  0  0
  6  7  1  0  0  0  0
  6  9  1  0  0  0  0
  7  8  2  0  0  0  0
  7 14  1  0  0  0  0
  8 15  1  0  0  0  0
  8 16  1  0  0  0  0
M  END
