
  xtb     02032211353D
 xtb: 6.4.1 (23d549d)
 48 48  0     0  0            999 V2000
    4.7121   -0.4742    1.7770 C   0  0  0  0  0  0  0  0  0  0  0  0
    3.5333    0.1221    1.9088 C   0  0  0  0  0  0  0  0  0  0  0  0
    2.4525    0.0910    0.9457 C   0  0  0  0  0  0  0  0  0  0  0  0
    1.1233    0.2085    1.2619 C   0  0  0  0  0  0  0  0  0  0  0  0
    0.3542    0.0835    0.1398 N   0  0  0  0  0  0  0  0  0  0  0  0
   -1.4135    0.1269   -0.0160 Si  0  0  0  0  0  0  0  0  0  0  0  0
   -2.1096    0.3426    1.7642 C   0  0  0  0  0  0  0  0  0  0  0  0
   -3.5759    0.7712    1.7744 C   0  0  0  0  0  0  0  0  0  0  0  0
   -1.9608   -0.9237    2.6091 C   0  0  0  0  0  0  0  0  0  0  0  0
   -1.7098    1.6343   -1.1785 C   0  0  0  0  0  0  0  0  0  0  0  0
   -3.1685    1.8928   -1.5525 C   0  0  0  0  0  0  0  0  0  0  0  0
   -1.0944    2.9063   -0.5931 C   0  0  0  0  0  0  0  0  0  0  0  0
   -1.9546   -1.5501   -0.8058 C   0  0  0  0  0  0  0  0  0  0  0  0
   -1.9729   -1.5250   -2.3351 C   0  0  0  0  0  0  0  0  0  0  0  0
   -1.0595   -2.7039   -0.3475 C   0  0  0  0  0  0  0  0  0  0  0  0
    1.2105   -0.1016   -0.9100 C   0  0  0  0  0  0  0  0  0  0  0  0
    2.5106   -0.1042   -0.4756 C   0  0  0  0  0  0  0  0  0  0  0  0
    3.6985   -0.1848   -1.2992 C   0  0  0  0  0  0  0  0  0  0  0  0
    3.7512   -0.7429   -2.5026 C   0  0  0  0  0  0  0  0  0  0  0  0
    5.4631   -0.4110    2.5466 H   0  0  0  0  0  0  0  0  0  0  0  0
    4.9634   -1.0613    0.9107 H   0  0  0  0  0  0  0  0  0  0  0  0
    3.3062    0.6594    2.8229 H   0  0  0  0  0  0  0  0  0  0  0  0
    0.6770    0.3621    2.2233 H   0  0  0  0  0  0  0  0  0  0  0  0
   -1.5388    1.1375    2.2551 H   0  0  0  0  0  0  0  0  0  0  0  0
   -4.1892    0.0761    1.2059 H   0  0  0  0  0  0  0  0  0  0  0  0
   -3.6965    1.7631    1.3502 H   0  0  0  0  0  0  0  0  0  0  0  0
   -3.9531    0.7970    2.7960 H   0  0  0  0  0  0  0  0  0  0  0  0
   -2.5975   -1.7149    2.2205 H   0  0  0  0  0  0  0  0  0  0  0  0
   -2.2614   -0.7276    3.6378 H   0  0  0  0  0  0  0  0  0  0  0  0
   -0.9340   -1.2797    2.6185 H   0  0  0  0  0  0  0  0  0  0  0  0
   -1.1735    1.4182   -2.1092 H   0  0  0  0  0  0  0  0  0  0  0  0
   -3.7230    2.2835   -0.7046 H   0  0  0  0  0  0  0  0  0  0  0  0
   -3.6636    0.9854   -1.8870 H   0  0  0  0  0  0  0  0  0  0  0  0
   -3.2267    2.6280   -2.3541 H   0  0  0  0  0  0  0  0  0  0  0  0
   -1.5905    3.1830    0.3344 H   0  0  0  0  0  0  0  0  0  0  0  0
   -1.1978    3.7348   -1.2922 H   0  0  0  0  0  0  0  0  0  0  0  0
   -0.0366    2.7645   -0.3866 H   0  0  0  0  0  0  0  0  0  0  0  0
   -2.9754   -1.7700   -0.4742 H   0  0  0  0  0  0  0  0  0  0  0  0
   -0.9740   -1.3548   -2.7280 H   0  0  0  0  0  0  0  0  0  0  0  0
   -2.6276   -0.7476   -2.7174 H   0  0  0  0  0  0  0  0  0  0  0  0
   -2.3228   -2.4818   -2.7206 H   0  0  0  0  0  0  0  0  0  0  0  0
   -0.0335   -2.5380   -0.6674 H   0  0  0  0  0  0  0  0  0  0  0  0
   -1.4035   -3.6420   -0.7812 H   0  0  0  0  0  0  0  0  0  0  0  0
   -1.0627   -2.8083    0.7328 H   0  0  0  0  0  0  0  0  0  0  0  0
    0.8352   -0.1776   -1.9103 H   0  0  0  0  0  0  0  0  0  0  0  0
    4.5863    0.2674   -0.8762 H   0  0  0  0  0  0  0  0  0  0  0  0
    2.8931   -1.2189   -2.9468 H   0  0  0  0  0  0  0  0  0  0  0  0
    4.6572   -0.7520   -3.0842 H   0  0  0  0  0  0  0  0  0  0  0  0
  1  2  2  0  0  0  0
  2  3  1  0  0  0  0
  3  4  2  0  0  0  0
  4  5  4  0  0  0  0
  5  6  1  0  0  0  0
  6  7  1  0  0  0  0
  7  8  1  0  0  0  0
  7  9  1  0  0  0  0
  6 10  1  0  0  0  0
 10 11  1  0  0  0  0
 10 12  1  0  0  0  0
  6 13  1  0  0  0  0
 13 14  1  0  0  0  0
 13 15  1  0  0  0  0
  5 16  4  0  0  0  0
  3 17  1  0  0  0  0
 16 17  2  0  0  0  0
 17 18  1  0  0  0  0
 18 19  2  0  0  0  0
  1 20  1  0  0  0  0
  1 21  1  0  0  0  0
  2 22  1  0  0  0  0
  4 23  1  0  0  0  0
  7 24  1  0  0  0  0
  8 25  1  0  0  0  0
  8 26  1  0  0  0  0
  8 27  1  0  0  0  0
  9 28  1  0  0  0  0
  9 29  1  0  0  0  0
  9 30  1  0  0  0  0
 10 31  1  0  0  0  0
 11 32  1  0  0  0  0
 11 33  1  0  0  0  0
 11 34  1  0  0  0  0
 12 35  1  0  0  0  0
 12 36  1  0  0  0  0
 12 37  1  0  0  0  0
 13 38  1  0  0  0  0
 14 39  1  0  0  0  0
 14 40  1  0  0  0  0
 14 41  1  0  0  0  0
 15 42  1  0  0  0  0
 15 43  1  0  0  0  0
 15 44  1  0  0  0  0
 16 45  1  0  0  0  0
 18 46  1  0  0  0  0
 19 47  1  0  0  0  0
 19 48  1  0  0  0  0
M  END
