
  xtb     02032211343D
 xtb: 6.4.1 (23d549d)
 38 40  0     0  0            999 V2000
    6.5159    0.4149   -0.0903 F   0  0  0  0  0  0  0  0  0  0  0  0
    5.2363    0.0787    0.0844 C   0  0  0  0  0  0  0  0  0  0  0  0
    5.1826   -1.0545    0.7779 F   0  0  0  0  0  0  0  0  0  0  0  0
    4.2284    0.8013   -0.3839 C   0  0  0  0  0  0  0  0  0  0  0  0
    2.8042    0.5524   -0.2672 C   0  0  0  0  0  0  0  0  0  0  0  0
    1.9215    1.4618   -0.8583 C   0  0  0  0  0  0  0  0  0  0  0  0
    0.5584    1.2868   -0.7877 C   0  0  0  0  0  0  0  0  0  0  0  0
    0.0193    0.1873   -0.1140 C   0  0  0  0  0  0  0  0  0  0  0  0
   -1.3574    0.0048   -0.0369 N   0  0  0  0  0  0  0  0  0  0  0  0
   -1.9021   -1.2876   -0.0257 C   0  0  0  0  0  0  0  0  0  0  0  0
   -1.3628   -2.2903   -0.8302 C   0  0  0  0  0  0  0  0  0  0  0  0
   -1.9069   -3.5600   -0.8159 C   0  0  0  0  0  0  0  0  0  0  0  0
   -2.9971   -3.8472   -0.0109 C   0  0  0  0  0  0  0  0  0  0  0  0
   -3.5399   -2.8523    0.7855 C   0  0  0  0  0  0  0  0  0  0  0  0
   -2.9978   -1.5817    0.7844 C   0  0  0  0  0  0  0  0  0  0  0  0
   -2.2167    1.1109    0.0300 C   0  0  0  0  0  0  0  0  0  0  0  0
   -3.4340    1.0979   -0.6493 C   0  0  0  0  0  0  0  0  0  0  0  0
   -4.2836    2.1846   -0.5738 C   0  0  0  0  0  0  0  0  0  0  0  0
   -3.9327    3.2992    0.1700 C   0  0  0  0  0  0  0  0  0  0  0  0
   -2.7233    3.3172    0.8454 C   0  0  0  0  0  0  0  0  0  0  0  0
   -1.8706    2.2322    0.7828 C   0  0  0  0  0  0  0  0  0  0  0  0
    0.8967   -0.7241    0.4803 C   0  0  0  0  0  0  0  0  0  0  0  0
    2.2599   -0.5463    0.4040 C   0  0  0  0  0  0  0  0  0  0  0  0
    4.5187    1.6916   -0.9234 H   0  0  0  0  0  0  0  0  0  0  0  0
    2.3174    2.3150   -1.3897 H   0  0  0  0  0  0  0  0  0  0  0  0
   -0.1032    1.9966   -1.2617 H   0  0  0  0  0  0  0  0  0  0  0  0
   -0.5197   -2.0651   -1.4669 H   0  0  0  0  0  0  0  0  0  0  0  0
   -1.4814   -4.3280   -1.4448 H   0  0  0  0  0  0  0  0  0  0  0  0
   -3.4213   -4.8397   -0.0050 H   0  0  0  0  0  0  0  0  0  0  0  0
   -4.3874   -3.0686    1.4191 H   0  0  0  0  0  0  0  0  0  0  0  0
   -3.4171   -0.8087    1.4118 H   0  0  0  0  0  0  0  0  0  0  0  0
   -3.7055    0.2324   -1.2359 H   0  0  0  0  0  0  0  0  0  0  0  0
   -5.2230    2.1634   -1.1063 H   0  0  0  0  0  0  0  0  0  0  0  0
   -4.5976    4.1476    0.2241 H   0  0  0  0  0  0  0  0  0  0  0  0
   -2.4450    4.1791    1.4337 H   0  0  0  0  0  0  0  0  0  0  0  0
   -0.9334    2.2429    1.3200 H   0  0  0  0  0  0  0  0  0  0  0  0
    0.4960   -1.5735    1.0133 H   0  0  0  0  0  0  0  0  0  0  0  0
    2.9043   -1.2660    0.8813 H   0  0  0  0  0  0  0  0  0  0  0  0
  1  2  1  0  0  0  0
  2  3  1  0  0  0  0
  2  4  2  0  0  0  0
  4  5  1  0  0  0  0
  5  6  4  0  0  0  0
  6  7  4  0  0  0  0
  7  8  4  0  0  0  0
  8  9  1  0  0  0  0
  9 10  1  0  0  0  0
 10 11  4  0  0  0  0
 11 12  4  0  0  0  0
 12 13  4  0  0  0  0
 13 14  4  0  0  0  0
 10 15  4  0  0  0  0
 14 15  4  0  0  0  0
  9 16  1  0  0  0  0
 16 17  4  0  0  0  0
 17 18  4  0  0  0  0
 18 19  4  0  0  0  0
 19 20  4  0  0  0  0
 16 21  4  0  0  0  0
 20 21  4  0  0  0  0
  8 22  4  0  0  0  0
  5 23  4  0  0  0  0
 22 23  4  0  0  0  0
  4 24  1  0  0  0  0
  6 25  1  0  0  0  0
  7 26  1  0  0  0  0
 11 27  1  0  0  0  0
 12 28  1  0  0  0  0
 13 29  1  0  0  0  0
 14 30  1  0  0  0  0
 15 31  1  0  0  0  0
 17 32  1  0  0  0  0
 18 33  1  0  0  0  0
 19 34  1  0  0  0  0
 20 35  1  0  0  0  0
 21 36  1  0  0  0  0
 22 37  1  0  0  0  0
 23 38  1  0  0  0  0
M  END
