
  xtb     02032211353D
 xtb: 6.4.1 (23d549d)
 37 39  0     0  0            999 V2000
    5.9168    0.3580    0.0056 C   0  0  0  0  0  0  0  0  0  0  0  0
    4.8291   -0.4044   -0.0085 C   0  0  0  0  0  0  0  0  0  0  0  0
    3.4428    0.0420   -0.0063 C   0  0  0  0  0  0  0  0  0  0  0  0
    3.0826    1.3928   -0.0080 C   0  0  0  0  0  0  0  0  0  0  0  0
    1.7591    1.7880   -0.0053 C   0  0  0  0  0  0  0  0  0  0  0  0
    0.7680    0.8183   -0.0009 C   0  0  0  0  0  0  0  0  0  0  0  0
    1.1123   -0.5422    0.0004 C   0  0  0  0  0  0  0  0  0  0  0  0
    2.4313   -0.9273   -0.0027 C   0  0  0  0  0  0  0  0  0  0  0  0
   -0.1282   -1.4079    0.0047 C   0  0  0  0  0  0  0  0  0  0  0  0
   -0.1911   -2.2760    1.2651 C   0  0  0  0  0  0  0  0  0  0  0  0
   -0.1969   -2.2809   -1.2519 C   0  0  0  0  0  0  0  0  0  0  0  0
   -1.2245   -0.3649    0.0049 C   0  0  0  0  0  0  0  0  0  0  0  0
   -2.5851   -0.5534    0.0070 C   0  0  0  0  0  0  0  0  0  0  0  0
   -3.4381    0.5570    0.0061 C   0  0  0  0  0  0  0  0  0  0  0  0
   -4.8891    0.4327    0.0063 C   0  0  0  0  0  0  0  0  0  0  0  0
   -5.5951   -0.6921   -0.0259 C   0  0  0  0  0  0  0  0  0  0  0  0
   -2.8776    1.8384    0.0053 C   0  0  0  0  0  0  0  0  0  0  0  0
   -1.5102    2.0364    0.0027 C   0  0  0  0  0  0  0  0  0  0  0  0
   -0.6776    0.9284    0.0021 C   0  0  0  0  0  0  0  0  0  0  0  0
    6.9024   -0.0752    0.0025 H   0  0  0  0  0  0  0  0  0  0  0  0
    5.8776    1.4335    0.0211 H   0  0  0  0  0  0  0  0  0  0  0  0
    4.9512   -1.4814   -0.0218 H   0  0  0  0  0  0  0  0  0  0  0  0
    3.8537    2.1475   -0.0121 H   0  0  0  0  0  0  0  0  0  0  0  0
    1.5025    2.8373   -0.0067 H   0  0  0  0  0  0  0  0  0  0  0  0
    2.7003   -1.9747   -0.0019 H   0  0  0  0  0  0  0  0  0  0  0  0
    0.6422   -2.9746    1.2850 H   0  0  0  0  0  0  0  0  0  0  0  0
   -1.1199   -2.8412    1.2891 H   0  0  0  0  0  0  0  0  0  0  0  0
   -0.1418   -1.6511    2.1544 H   0  0  0  0  0  0  0  0  0  0  0  0
    0.6361   -2.9798   -1.2728 H   0  0  0  0  0  0  0  0  0  0  0  0
   -0.1515   -1.6595   -2.1439 H   0  0  0  0  0  0  0  0  0  0  0  0
   -1.1258   -2.8461   -1.2695 H   0  0  0  0  0  0  0  0  0  0  0  0
   -2.9964   -1.5511    0.0108 H   0  0  0  0  0  0  0  0  0  0  0  0
   -5.4193    1.3775    0.0331 H   0  0  0  0  0  0  0  0  0  0  0  0
   -5.1413   -1.6678   -0.0570 H   0  0  0  0  0  0  0  0  0  0  0  0
   -6.6715   -0.6765   -0.0240 H   0  0  0  0  0  0  0  0  0  0  0  0
   -3.5370    2.6954    0.0056 H   0  0  0  0  0  0  0  0  0  0  0  0
   -1.1007    3.0358    0.0014 H   0  0  0  0  0  0  0  0  0  0  0  0
  1  2  2  0  0  0  0
  2  3  1  0  0  0  0
  3  4  4  0  0  0  0
  4  5  4  0  0  0  0
  5  6  4  0  0  0  0
  6  7  4  0  0  0  0
  3  8  4  0  0  0  0
  7  8  4  0  0  0  0
  7  9  1  0  0  0  0
  9 10  1  0  0  0  0
  9 11  1  0  0  0  0
  9 12  1  0  0  0  0
 12 13  4  0  0  0  0
 13 14  4  0  0  0  0
 14 15  1  0  0  0  0
 15 16  2  0  0  0  0
 14 17  4  0  0  0  0
 17 18  4  0  0  0  0
  6 19  1  0  0  0  0
 12 19  4  0  0  0  0
 18 19  4  0  0  0  0
  1 20  1  0  0  0  0
  1 21  1  0  0  0  0
  2 22  1  0  0  0  0
  4 23  1  0  0  0  0
  5 24  1  0  0  0  0
  8 25  1  0  0  0  0
 10 26  1  0  0  0  0
 10 27  1  0  0  0  0
 10 28  1  0  0  0  0
 11 29  1  0  0  0  0
 11 30  1  0  0  0  0
 11 31  1  0  0  0  0
 13 32  1  0  0  0  0
 15 33  1  0  0  0  0
 16 34  1  0  0  0  0
 16 35  1  0  0  0  0
 17 36  1  0  0  0  0
 18 37  1  0  0  0  0
M  END
