
 OpenBabel02032211263D

 34 35  0  0  0  0  0  0  0  0999 V2000
    2.2751    1.2500   -0.5479 C   0  0  0  0  0  0  0  0  0  0  0  0
    2.5666   -0.0229   -0.2482 C   0  0  0  0  0  0  0  0  0  0  0  0
    3.2134   -0.4748    1.0154 C   0  0  0  0  0  0  0  0  0  0  0  0
    3.5715    0.4049    2.0548 C   0  0  0  0  0  0  0  0  0  0  0  0
    4.1804   -0.0794    3.2159 C   0  0  0  0  0  0  0  0  0  0  0  0
    4.4549   -1.4480    3.3725 C   0  0  0  0  0  0  0  0  0  0  0  0
    5.1201   -1.8909    4.6331 C   0  0  0  0  0  0  0  0  0  0  0  0
    5.5322   -3.1522    4.8825 C   0  0  0  0  0  0  0  0  0  0  0  0
    6.2158   -3.5890    6.1355 C   0  0  0  0  0  0  0  0  0  0  0  0
    6.4197   -2.7450    7.2457 C   0  0  0  0  0  0  0  0  0  0  0  0
    7.0759   -3.2169    8.3864 C   0  0  0  0  0  0  0  0  0  0  0  0
    7.5517   -4.5355    8.4520 C   0  0  0  0  0  0  0  0  0  0  0  0
    8.2523   -4.9701    9.6923 C   0  0  0  0  0  0  0  0  0  0  0  0
    8.7800   -6.1861    9.8882 C   0  0  0  0  0  0  0  0  0  0  0  0
    7.3457   -5.3808    7.3455 C   0  0  0  0  0  0  0  0  0  0  0  0
    6.6843   -4.9112    6.2067 C   0  0  0  0  0  0  0  0  0  0  0  0
    4.0938   -2.3283    2.3324 C   0  0  0  0  0  0  0  0  0  0  0  0
    3.4795   -1.8437    1.1733 C   0  0  0  0  0  0  0  0  0  0  0  0
    1.8045    1.4793   -1.4988 H   0  0  0  0  0  0  0  0  0  0  0  0
    2.4888    2.0768    0.1158 H   0  0  0  0  0  0  0  0  0  0  0  0
    2.3126   -0.7762   -0.9893 H   0  0  0  0  0  0  0  0  0  0  0  0
    3.3903    1.4667    1.9892 H   0  0  0  0  0  0  0  0  0  0  0  0
    4.4452    0.6249    3.9954 H   0  0  0  0  0  0  0  0  0  0  0  0
    5.2883   -1.1198    5.3726 H   0  0  0  0  0  0  0  0  0  0  0  0
    5.3886   -3.9175    4.1319 H   0  0  0  0  0  0  0  0  0  0  0  0
    6.0794   -1.7212    7.2575 H   0  0  0  0  0  0  0  0  0  0  0  0
    7.2165   -2.5423    9.2225 H   0  0  0  0  0  0  0  0  0  0  0  0
    8.3509   -4.2519   10.5016 H   0  0  0  0  0  0  0  0  0  0  0  0
    8.7417   -6.9729    9.1476 H   0  0  0  0  0  0  0  0  0  0  0  0
    9.2754   -6.4064   10.8289 H   0  0  0  0  0  0  0  0  0  0  0  0
    7.6884   -6.4044    7.3402 H   0  0  0  0  0  0  0  0  0  0  0  0
    6.5456   -5.5875    5.3715 H   0  0  0  0  0  0  0  0  0  0  0  0
    4.2718   -3.3899    2.3924 H   0  0  0  0  0  0  0  0  0  0  0  0
    3.2139   -2.5458    0.3921 H   0  0  0  0  0  0  0  0  0  0  0  0
  1  2  2  0  0  0  0
  1 19  1  0  0  0  0
  1 20  1  0  0  0  0
  2  3  1  0  0  0  0
  2 21  1  0  0  0  0
  3  4  1  0  0  0  0
  3 18  2  0  0  0  0
  4  5  2  0  0  0  0
  4 22  1  0  0  0  0
  5  6  1  0  0  0  0
  5 23  1  0  0  0  0
  6  7  1  0  0  0  0
  6 17  2  0  0  0  0
  7  8  2  0  0  0  0
  7 24  1  0  0  0  0
  8  9  1  0  0  0  0
  8 25  1  0  0  0  0
  9 10  1  0  0  0  0
  9 16  2  0  0  0  0
 10 11  2  0  0  0  0
 10 26  1  0  0  0  0
 11 12  1  0  0  0  0
 11 27  1  0  0  0  0
 12 13  1  0  0  0  0
 12 15  2  0  0  0  0
 13 14  2  0  0  0  0
 13 28  1  0  0  0  0
 14 29  1  0  0  0  0
 14 30  1  0  0  0  0
 15 16  1  0  0  0  0
 15 31  1  0  0  0  0
 16 32  1  0  0  0  0
 17 18  1  0  0  0  0
 17 33  1  0  0  0  0
 18 34  1  0  0  0  0
M  END
