
  xtb     02032211073D
 xtb: 6.4.1 (23d549d)
 56 56  0     0  0            999 V2000
    2.2592    0.6436   -1.4839 c   0  0  0  0  0  0  0  0  0  0  0  0
    2.5231    0.6492   -0.1882 c   0  0  0  0  0  0  0  0  0  0  0  0
    3.1161   -0.4778    0.5520 c   0  0  0  0  0  0  0  0  0  0  0  0
    4.3587   -0.2807    1.1405 c   0  0  0  0  0  0  0  0  0  0  0  0
    5.0354   -1.2791    1.8272 c   0  0  0  0  0  0  0  0  0  0  0  0
    6.4296   -1.0055    2.3237 c   0  0  0  0  0  0  0  0  0  0  0  0
    7.4050   -0.5624    1.2232 c   0  0  0  0  0  0  0  0  0  0  0  0
    7.8975   -1.7012    0.3281 c   0  0  0  0  0  0  0  0  0  0  0  0
    6.8369   -2.3476   -0.5636 c   0  0  0  0  0  0  0  0  0  0  0  0
    6.2435   -1.4025   -1.6047 c   0  0  0  0  0  0  0  0  0  0  0  0
    5.2036   -2.1094   -2.4646 c   0  0  0  0  0  0  0  0  0  0  0  0
    4.3958   -2.5130    1.9901 c   0  0  0  0  0  0  0  0  0  0  0  0
    4.9576   -3.6354    2.7521 c   0  0  0  0  0  0  0  0  0  0  0  0
    5.4324   -3.5613    3.9863 c   0  0  0  0  0  0  0  0  0  0  0  0
    3.1476   -2.7073    1.4015 c   0  0  0  0  0  0  0  0  0  0  0  0
    2.4957   -1.7243    0.6771 c   0  0  0  0  0  0  0  0  0  0  0  0
    1.1176   -1.9863    0.1381 c   0  0  0  0  0  0  0  0  0  0  0  0
    0.0658   -1.3119    1.0257 c   0  0  0  0  0  0  0  0  0  0  0  0
   -1.3570   -1.4500    0.4850 c   0  0  0  0  0  0  0  0  0  0  0  0
   -1.8805   -2.8853    0.3955 c   0  0  0  0  0  0  0  0  0  0  0  0
   -1.9042   -3.6471    1.7215 c   0  0  0  0  0  0  0  0  0  0  0  0
   -2.8082   -3.0047    2.7670 c   0  0  0  0  0  0  0  0  0  0  0  0
    1.8560    1.5070   -1.9864 h   0  0  0  0  0  0  0  0  0  0  0  0
    2.4516   -0.2202   -2.0989 h   0  0  0  0  0  0  0  0  0  0  0  0
    2.3635    1.5508    0.3931 h   0  0  0  0  0  0  0  0  0  0  0  0
    4.8196    0.6932    1.0432 h   0  0  0  0  0  0  0  0  0  0  0  0
    6.8366   -1.8949    2.8044 h   0  0  0  0  0  0  0  0  0  0  0  0
    6.3790   -0.2113    3.0750 h   0  0  0  0  0  0  0  0  0  0  0  0
    8.2807   -0.1252    1.7109 h   0  0  0  0  0  0  0  0  0  0  0  0
    6.9550    0.2178    0.6101 h   0  0  0  0  0  0  0  0  0  0  0  0
    8.3343   -2.4770    0.9629 h   0  0  0  0  0  0  0  0  0  0  0  0
    8.6969   -1.3113   -0.3087 h   0  0  0  0  0  0  0  0  0  0  0  0
    6.0323   -2.7461    0.0534 h   0  0  0  0  0  0  0  0  0  0  0  0
    7.3002   -3.1909   -1.0835 h   0  0  0  0  0  0  0  0  0  0  0  0
    7.0427   -1.0116   -2.2394 h   0  0  0  0  0  0  0  0  0  0  0  0
    5.7638   -0.5588   -1.1077 h   0  0  0  0  0  0  0  0  0  0  0  0
    5.6412   -2.9664   -2.9729 h   0  0  0  0  0  0  0  0  0  0  0  0
    4.8044   -1.4321   -3.2164 h   0  0  0  0  0  0  0  0  0  0  0  0
    4.3817   -2.4603   -1.8435 h   0  0  0  0  0  0  0  0  0  0  0  0
    4.9070   -4.5977    2.2552 h   0  0  0  0  0  0  0  0  0  0  0  0
    5.4516   -2.6346    4.5356 h   0  0  0  0  0  0  0  0  0  0  0  0
    5.8002   -4.4312    4.5045 h   0  0  0  0  0  0  0  0  0  0  0  0
    2.6662   -3.6682    1.5287 h   0  0  0  0  0  0  0  0  0  0  0  0
    0.9426   -3.0626    0.1123 h   0  0  0  0  0  0  0  0  0  0  0  0
    1.0201   -1.5993   -0.8762 h   0  0  0  0  0  0  0  0  0  0  0  0
    0.3045   -0.2475    1.0924 h   0  0  0  0  0  0  0  0  0  0  0  0
    0.1287   -1.7233    2.0347 h   0  0  0  0  0  0  0  0  0  0  0  0
   -1.3926   -1.0121   -0.5162 h   0  0  0  0  0  0  0  0  0  0  0  0
   -2.0268   -0.8641    1.1174 h   0  0  0  0  0  0  0  0  0  0  0  0
   -1.2743   -3.4458   -0.3190 h   0  0  0  0  0  0  0  0  0  0  0  0
   -2.8980   -2.8493   -0.0031 h   0  0  0  0  0  0  0  0  0  0  0  0
   -0.8916   -3.7310    2.1195 h   0  0  0  0  0  0  0  0  0  0  0  0
   -2.2597   -4.6616    1.5227 h   0  0  0  0  0  0  0  0  0  0  0  0
   -2.4232   -2.0360    3.0748 h   0  0  0  0  0  0  0  0  0  0  0  0
   -2.8733   -3.6378    3.6493 h   0  0  0  0  0  0  0  0  0  0  0  0
   -3.8118   -2.8669    2.3698 h   0  0  0  0  0  0  0  0  0  0  0  0
  1  2  2  0  0  0  0
  2  3  1  0  0  0  0
  3  4  4  0  0  0  0
  4  5  4  0  0  0  0
  5  6  1  0  0  0  0
  6  7  1  0  0  0  0
  7  8  1  0  0  0  0
  8  9  1  0  0  0  0
  9 10  1  0  0  0  0
 10 11  1  0  0  0  0
  5 12  4  0  0  0  0
 12 13  1  0  0  0  0
 13 14  2  0  0  0  0
 12 15  4  0  0  0  0
  3 16  4  0  0  0  0
 15 16  4  0  0  0  0
 16 17  1  0  0  0  0
 17 18  1  0  0  0  0
 18 19  1  0  0  0  0
 19 20  1  0  0  0  0
 20 21  1  0  0  0  0
 21 22  1  0  0  0  0
  1 23  1  0  0  0  0
  1 24  1  0  0  0  0
  2 25  1  0  0  0  0
  4 26  1  0  0  0  0
  6 27  1  0  0  0  0
  6 28  1  0  0  0  0
  7 29  1  0  0  0  0
  7 30  1  0  0  0  0
  8 31  1  0  0  0  0
  8 32  1  0  0  0  0
  9 33  1  0  0  0  0
  9 34  1  0  0  0  0
 10 35  1  0  0  0  0
 10 36  1  0  0  0  0
 11 37  1  0  0  0  0
 11 38  1  0  0  0  0
 11 39  1  0  0  0  0
 13 40  1  0  0  0  0
 14 41  1  0  0  0  0
 14 42  1  0  0  0  0
 15 43  1  0  0  0  0
 17 44  1  0  0  0  0
 17 45  1  0  0  0  0
 18 46  1  0  0  0  0
 18 47  1  0  0  0  0
 19 48  1  0  0  0  0
 19 49  1  0  0  0  0
 20 50  1  0  0  0  0
 20 51  1  0  0  0  0
 21 52  1  0  0  0  0
 21 53  1  0  0  0  0
 22 54  1  0  0  0  0
 22 55  1  0  0  0  0
 22 56  1  0  0  0  0
M  END
