51

C          6.90137       -7.50930       -5.00016
C          6.41723       -6.14315       -4.52331
C          6.89580       -5.02816       -5.46028
C          6.42198       -3.65681       -4.96416
C          6.97857       -3.35335       -3.56848
C          8.51229       -3.33052       -3.58274
C          9.06739       -3.04600       -2.18277
C          8.63800       -4.12970       -1.18420
C          9.16670       -5.50200       -1.61870
C         10.69960       -5.52070       -1.68120
C         11.20099       -6.89776       -2.13464
C         10.68253       -7.25259       -3.53148
C         11.17598       -8.61424       -3.94182
C         11.99479       -9.40363       -3.11765
C         12.32634      -10.62761       -3.68836
C         13.18259      -11.68281       -3.07172
S         11.60807      -10.74433       -5.20293
C         10.86783       -9.23363       -5.15643
C         10.01401       -8.67852       -6.25048
H          6.54008       -8.29529       -4.30406
H          8.01158       -7.53813       -5.02467
H          6.50748       -7.72498       -6.01619
H          6.80701       -5.96225       -3.49771
H          5.30586       -6.14896       -4.48703
H          6.49346       -5.20883       -6.48162
H          8.00734       -5.03867       -5.50624
H          5.31023       -3.64510       -4.92588
H          6.76449       -2.87174       -5.67391
H          6.62931       -4.13376       -2.85644
H          6.59951       -2.36413       -3.22916
H          8.86121       -2.54037       -4.28367
H          8.89107       -4.31529       -3.93510
H          8.69315       -2.05847       -1.83393
H         10.17831       -3.01153       -2.23005
H          7.52706       -4.16349       -1.13059
H          9.03883       -3.88184       -0.17727
H          8.75950       -5.74690       -2.62460
H          8.82050       -6.27200       -0.89470
H         11.11546       -5.28948       -0.67620
H         11.04624       -4.74546       -2.39985
H         10.85060       -7.66847       -1.41313
H         12.31392       -6.89765       -2.14404
H         11.02354       -6.49767       -4.27348
H          9.57123       -7.23717       -3.53217
H         12.33516       -9.09134       -2.13874
H         13.53513      -11.36596       -2.06764
H         14.06353      -11.86899       -3.72071
H         12.59934      -12.62159       -2.97036
H          9.93358       -9.40849       -7.08287
H         10.46462       -7.74184       -6.63890
H          8.99655       -8.46648       -5.86190
51

C          7.13481       -3.83500        5.59264
C          6.62196       -4.18229        4.19819
C          7.14395       -5.54922        3.74085
C          6.64039       -5.88259        2.33140
C          7.12358       -4.84324        1.31352
C          6.60506       -5.17037       -0.09259
C          7.10483       -4.14105       -1.11227
C          8.63800       -4.12970       -1.18420
C          9.16670       -5.50200       -1.61870
C         10.69960       -5.52070       -1.68120
C         11.20867       -4.46733       -2.67345
C         12.73734       -4.47681       -2.76801
C         13.34612       -4.19831       -1.41975
C         14.58965       -4.72032       -1.02735
C         14.96607       -4.33078        0.25340
C         16.22231       -4.72078        0.95812
S         13.77503       -3.33889        0.90227
C         12.75860       -3.39544       -0.43788
C         11.44984       -2.68000       -0.53485
H          6.74111       -2.84234        5.89678
H          8.24492       -3.79429        5.59631
H          6.79432       -4.59395        6.32888
H          6.95798       -3.39684        3.48638
H          5.51022       -4.19461        4.21756
H          6.79517       -6.33171        4.45057
H          8.25642       -5.53634        3.74043
H          5.52811       -5.90260        2.33491
H          7.01604       -6.88706        2.03590
H          8.23611       -4.83114        1.30130
H          6.75822       -3.83673        1.61493
H          5.49272       -5.16800       -0.08347
H          6.95916       -6.18255       -0.38842
H          6.74509       -3.13032       -0.81905
H          6.69333       -4.39053       -2.11526
H          9.05300       -3.87546       -0.18353
H          8.96635       -3.35940       -1.91551
H          8.75950       -5.74690       -2.62460
H          8.82050       -6.27200       -0.89470
H         11.04630       -6.52735       -2.00197
H         11.10995       -5.30544       -0.66982
H         10.87403       -3.46055       -2.33916
H         10.77634       -4.67148       -3.67849
H         13.08426       -3.70992       -3.49485
H         13.08206       -5.46515       -3.14160
H         15.19339       -5.36199       -1.65617
H         16.84423       -5.38032        0.31697
H         15.96803       -5.26261        1.89282
H         16.80385       -3.80999        1.21120
H         11.25724       -2.10391        0.39425
H         10.63054       -3.41493       -0.67594
H         11.46872       -1.97725       -1.39332
51

C         10.88443       -2.83302       -7.60114
C         10.48602       -3.89278       -6.57825
C         11.04001       -3.55708       -5.18881
C         10.49005       -2.21505       -4.69107
C          8.96178       -2.25361       -4.57835
C          8.51229       -3.33052       -3.58274
C          9.06739       -3.04600       -2.18277
C          8.63800       -4.12970       -1.18420
C          9.16670       -5.50200       -1.61870
C         10.69960       -5.52070       -1.68120
C         11.29626       -5.21662       -0.30104
C         12.82739       -5.21198       -0.33939
C         13.32323       -4.15356       -1.28801
C         14.11393       -4.45176       -2.40994
C         14.45325       -3.32685       -3.15372
C         15.28539       -3.30913       -4.39230
S         13.77629       -1.96567       -2.43790
C         13.04474       -2.78926       -1.16555
C         12.22499       -2.13748       -0.09911
H         10.46983       -3.10191       -8.59546
H         11.99065       -2.77099       -7.68140
H         10.48313       -1.84057       -7.30451
H         10.88095       -4.87795       -6.90989
H          9.37637       -3.94949       -6.53404
H         12.15008       -3.50364       -5.23916
H         10.75218       -4.36010       -4.47463
H         10.78496       -1.41187       -5.40206
H         10.92548       -1.98789       -3.69297
H          8.52545       -2.47250       -5.57822
H          8.59366       -1.26097       -4.23697
H          8.87609       -4.32372       -3.92713
H          7.40089       -3.35063       -3.54028
H          8.69315       -2.05847       -1.83393
H         10.17831       -3.01153       -2.23005
H          7.52706       -4.16349       -1.13059
H          9.03883       -3.88184       -0.17727
H          8.75950       -5.74690       -2.62460
H          8.82050       -6.27200       -0.89470
H         11.05121       -4.75886       -2.41086
H         11.04008       -6.52459       -2.01868
H         10.95572       -5.99085        0.42140
H         10.93359       -4.22258        0.04402
H         13.20880       -6.20524       -0.66299
H         13.22572       -5.02203        0.68065
H         14.42916       -5.45431       -2.66910
H         15.61211       -4.33569       -4.66113
H         16.18268       -2.67766       -4.22494
H         14.69356       -2.88697       -5.23092
H         12.16288       -1.04355       -0.27708
H         12.69214       -2.31231        0.89209
H         11.19858       -2.55894       -0.10416
51

C          0.96991       -2.49541        1.05684
C          2.49200       -2.44958        0.96054
C          2.94937       -1.44738       -0.10554
C          4.47896       -1.42106       -0.21010
C          5.02777       -2.79599       -0.60778
C          6.55898       -2.77076       -0.69591
C          7.10483       -4.14105       -1.11227
C          8.63800       -4.12970       -1.18420
C          9.16670       -5.50200       -1.61870
C         10.69960       -5.52070       -1.68120
C         11.20867       -4.46733       -2.67345
C         10.66251       -4.71291       -4.08314
C         11.07754       -6.07383       -4.57470
C         10.29736       -6.82776       -5.46676
C         10.87194       -8.05054       -5.79600
C         10.29175       -9.07770       -6.70988
S         12.34232       -8.20365       -4.99724
C         12.26617       -6.71545       -4.21507
C         13.32322       -6.18892       -3.29881
H          0.66873       -3.22766        1.83529
H          0.53116       -2.80771        0.08525
H          0.57076       -1.49651        1.33407
H          2.86601       -3.46482        0.70381
H          2.90545       -2.15649        1.95032
H          2.58163       -0.43231        0.16288
H          2.51839       -1.73570       -1.08985
H          4.90834       -1.12530        0.77263
H          4.78139       -0.67092       -0.97378
H          4.60759       -3.08701       -1.59611
H          4.71566       -3.54886        0.14929
H          6.97931       -2.49405        0.29614
H          6.87141       -2.00824       -1.44314
H          6.69402       -4.41143       -2.10981
H          6.77893       -4.90471       -0.37188
H          9.05300       -3.87546       -0.18353
H          8.96635       -3.35940       -1.91551
H          8.75950       -5.74690       -2.62460
H          8.82050       -6.27200       -0.89470
H         11.04630       -6.52735       -2.00197
H         11.10995       -5.30544       -0.66982
H         12.31995       -4.50436       -2.70546
H         10.89521       -3.45682       -2.32802
H         11.03984       -3.93660       -4.78438
H          9.55376       -4.63678       -4.07237
H          9.34498       -6.49293       -5.85729
H          9.31380       -8.73880       -7.11188
H         10.14307      -10.02581       -6.15231
H         10.98755       -9.25725       -7.55569
H         14.16068       -6.91346       -3.22199
H         12.89618       -6.02779       -2.28740
H         13.71664       -5.22875       -3.69184
51

C          6.81208        0.83408       -2.21811
C          6.29413        0.47357       -3.60732
C          6.84696       -0.87920       -4.07046
C          6.41448       -2.00088       -3.11859
C          6.97857       -3.35335       -3.56848
C          8.51229       -3.33052       -3.58274
C          9.06739       -3.04600       -2.18277
C          8.63800       -4.12970       -1.18420
C          9.16670       -5.50200       -1.61870
C         10.69960       -5.52070       -1.68120
C         11.20099       -6.89776       -2.13464
C         12.73079       -6.94891       -2.18885
C         13.31122       -6.68436       -0.82537
C         14.17504       -5.60776       -0.56535
C         14.58583       -5.54513        0.76171
C         15.50470       -4.52779        1.35124
S         13.88261       -6.80799        1.61852
C         13.04793       -7.45716        0.30923
C         12.16513       -8.66095        0.38450
H          6.39571        1.81609       -1.90960
H          7.92072        0.90382       -2.22587
H          6.49917        0.06644       -1.47865
H          6.60213        1.26759       -4.32229
H          5.18335        0.43218       -3.57649
H          7.95798       -0.83085       -4.10104
H          6.46981       -1.09940       -5.09370
H          5.30356       -2.05575       -3.09776
H          6.78142       -1.77355       -2.09337
H          6.60502       -3.58510       -4.59063
H          6.62937       -4.14693       -2.87158
H          8.86121       -2.54037       -4.28367
H          8.89107       -4.31529       -3.93510
H          8.69315       -2.05847       -1.83393
H         10.17831       -3.01153       -2.23005
H          7.52706       -4.16349       -1.13059
H          9.03883       -3.88184       -0.17727
H          8.75950       -5.74690       -2.62460
H          8.82050       -6.27200       -0.89470
H         11.11546       -5.28948       -0.67620
H         11.04624       -4.74546       -2.39985
H         10.79647       -7.11714       -3.14735
H         10.83151       -7.67345       -1.42717
H         13.11744       -6.19318       -2.90727
H         13.05824       -7.94699       -2.55195
H         14.49091       -4.89954       -1.32053
H         15.83232       -3.79984        0.57950
H         16.39831       -5.03612        1.76952
H         14.98170       -3.98211        2.16393
H         12.13454       -9.05048        1.42350
H         12.55707       -9.45548       -0.28363
H         11.13469       -8.39098        0.07385
51

C          4.80944       -1.19950       -5.52432
C          6.33376       -1.14042       -5.49121
C          6.84696       -0.87920       -4.07046
C          6.41448       -2.00088       -3.11859
C          6.97857       -3.35335       -3.56848
C          8.51229       -3.33052       -3.58274
C          9.06739       -3.04600       -2.18277
C          8.63800       -4.12970       -1.18420
C          9.16670       -5.50200       -1.61870
C         10.69960       -5.52070       -1.68120
C         11.20099       -6.89776       -2.13464
C         12.73079       -6.94891       -2.18885
C         13.31122       -6.68436       -0.82537
C         12.51268       -6.43211        0.30226
C         13.25335       -6.22279        1.46043
C         12.70279       -5.92623        2.81534
S         14.88966       -6.35450        1.10183
C         14.67889       -6.67501       -0.53682
C         15.79622       -6.91828       -1.49938
H          4.46746       -1.38978       -6.56342
H          4.37845       -0.23590       -5.17830
H          4.44103       -2.01994       -4.87230
H          6.67608       -0.32685       -6.16755
H          6.73843       -2.10732       -5.86246
H          6.44038        0.08991       -3.70554
H          7.95771       -0.81828       -4.08641
H          5.30356       -2.05575       -3.09776
H          6.78142       -1.77355       -2.09337
H          6.60502       -3.58510       -4.59063
H          6.62937       -4.14693       -2.87158
H          8.86121       -2.54037       -4.28367
H          8.89107       -4.31529       -3.93510
H          8.69315       -2.05847       -1.83393
H         10.17831       -3.01153       -2.23005
H          7.52706       -4.16349       -1.13059
H          9.03883       -3.88184       -0.17727
H          8.75950       -5.74690       -2.62460
H          8.82050       -6.27200       -0.89470
H         11.11546       -5.28948       -0.67620
H         11.04624       -4.74546       -2.39985
H         10.79647       -7.11714       -3.14735
H         10.83151       -7.67345       -1.42717
H         13.11744       -6.19318       -2.90727
H         13.05824       -7.94699       -2.55195
H         11.43106       -6.40166        0.27349
H         11.59325       -5.89275        2.79015
H         13.08514       -4.94360        3.16198
H         13.02452       -6.71453        3.52727
H         16.77312       -6.86752       -0.97469
H         15.77844       -6.14697       -2.29690
H         15.68728       -7.92424       -1.95473
51

C          9.22477       -2.02913        2.22745
C          8.69254       -3.09432        3.18151
C          7.15997       -3.13003        3.17211
C          6.62998       -3.46669        1.77317
C          7.12358       -4.84324        1.31352
C          6.60506       -5.17037       -0.09259
C          7.10483       -4.14105       -1.11227
C          8.63800       -4.12970       -1.18420
C          9.16670       -5.50200       -1.61870
C         10.69960       -5.52070       -1.68120
C         11.20099       -6.89776       -2.13464
C         12.73079       -6.94891       -2.18885
C         13.31122       -6.68436       -0.82537
C         14.17504       -5.60776       -0.56535
C         14.58583       -5.54513        0.76171
C         15.50470       -4.52779        1.35124
S         13.88261       -6.80799        1.61852
C         13.04793       -7.45716        0.30923
C         12.16513       -8.66095        0.38450
H         10.33478       -2.02675        2.25510
H          8.85882       -1.02432        2.52823
H          8.89487       -2.24249        1.18841
H          9.05470       -2.86937        4.20853
H          9.09099       -4.08506        2.87143
H          6.76759       -2.13713        3.48487
H          6.80591       -3.89867        3.89431
H          6.97842       -2.69328        1.05344
H          5.51776       -3.46372        1.79196
H          6.76547       -5.61850        2.02679
H          8.23591       -4.85068        1.30591
H          5.49272       -5.16800       -0.08347
H          6.95916       -6.18255       -0.38842
H          6.74509       -3.13032       -0.81905
H          6.69333       -4.39053       -2.11526
H          9.05300       -3.87546       -0.18353
H          8.96635       -3.35940       -1.91551
H          8.75950       -5.74690       -2.62460
H          8.82050       -6.27200       -0.89470
H         11.11546       -5.28948       -0.67620
H         11.04624       -4.74546       -2.39985
H         10.79647       -7.11714       -3.14735
H         10.83151       -7.67345       -1.42717
H         13.11744       -6.19318       -2.90727
H         13.05824       -7.94699       -2.55195
H         14.49091       -4.89954       -1.32053
H         15.83232       -3.79984        0.57950
H         16.39831       -5.03612        1.76952
H         14.98170       -3.98211        2.16393
H         12.13454       -9.05048        1.42350
H         12.55707       -9.45548       -0.28363
H         11.13469       -8.39098        0.07385
51

C          7.20995       -1.18277        4.91125
C          6.66954       -1.61482        3.55132
C          7.25734       -2.96514        3.12557
C          6.72481       -3.38335        1.74979
C          7.10670       -2.35800        0.67620
C          6.55898       -2.77076       -0.69591
C          7.10483       -4.14105       -1.11227
C          8.63800       -4.12970       -1.18420
C          9.16670       -5.50200       -1.61870
C         10.69960       -5.52070       -1.68120
C         11.29626       -5.21662       -0.30104
C         12.82739       -5.21198       -0.33939
C         13.32323       -4.15356       -1.28801
C         13.04385       -2.78820       -1.11317
C         13.60571       -1.98493       -2.09949
C         13.48719       -0.50070       -2.19873
S         14.45227       -2.95043       -3.18329
C         14.11071       -4.40804       -2.41450
C         14.59740       -5.74210       -2.88089
H          6.76750       -0.20414        5.19305
H          8.31491       -1.07574        4.87096
H          6.94315       -1.93103        5.68771
H          6.93115       -0.83943        2.79844
H          5.56205       -1.69271        3.61362
H          6.98275       -3.73843        3.87675
H          8.36621       -2.88591        3.08214
H          5.61667       -3.46957        1.79657
H          7.15029       -4.37449        1.47775
H          8.21526       -2.28001        0.62100
H          6.69157       -1.36399        0.95367
H          6.85569       -2.01180       -1.45310
H          5.44849       -2.81615       -0.64964
H          6.69402       -4.41143       -2.10981
H          6.77893       -4.90471       -0.37188
H          9.05300       -3.87546       -0.18353
H          8.96635       -3.35940       -1.91551
H          8.75950       -5.74690       -2.62460
H          8.82050       -6.27200       -0.89470
H         11.05121       -4.75886       -2.41086
H         11.04008       -6.52459       -2.01868
H         10.95572       -5.99085        0.42140
H         10.93359       -4.22258        0.04402
H         13.20880       -6.20524       -0.66299
H         13.22572       -5.02203        0.68065
H         12.45029       -2.39990       -0.29552
H         12.87779       -0.09818       -1.36239
H         13.00134       -0.23282       -3.16002
H         14.49823       -0.04442       -2.16146
H         15.21966       -5.62664       -3.79284
H         13.73196       -6.39447       -3.11903
H         15.21120       -6.21631       -2.08744
51

C          6.81208        0.83408       -2.21811
C          6.29413        0.47357       -3.60732
C          6.84696       -0.87920       -4.07046
C          6.41448       -2.00088       -3.11859
C          6.97857       -3.35335       -3.56848
C          8.51229       -3.33052       -3.58274
C          9.06739       -3.04600       -2.18277
C          8.63800       -4.12970       -1.18420
C          9.16670       -5.50200       -1.61870
C         10.69960       -5.52070       -1.68120
C         11.29626       -5.21662       -0.30104
C         12.82739       -5.21198       -0.33939
C         13.34272       -6.54932       -0.79973
C         12.49138       -7.61537       -1.13380
C         13.17664       -8.75462       -1.54158
C         12.56227      -10.05041       -1.95429
S         14.82878       -8.45115       -1.49905
C         14.69575       -6.86421       -0.95475
C         15.85796       -5.95957       -0.69982
H          6.39571        1.81609       -1.90960
H          7.92072        0.90382       -2.22587
H          6.49917        0.06644       -1.47865
H          6.60213        1.26759       -4.32229
H          5.18335        0.43218       -3.57649
H          7.95798       -0.83085       -4.10104
H          6.46981       -1.09940       -5.09370
H          5.30356       -2.05575       -3.09776
H          6.78142       -1.77355       -2.09337
H          6.60502       -3.58510       -4.59063
H          6.62937       -4.14693       -2.87158
H          8.86121       -2.54037       -4.28367
H          8.89107       -4.31529       -3.93510
H          8.69315       -2.05847       -1.83393
H         10.17831       -3.01153       -2.23005
H          7.52706       -4.16349       -1.13059
H          9.03883       -3.88184       -0.17727
H          8.75950       -5.74690       -2.62460
H          8.82050       -6.27200       -0.89470
H         11.05121       -4.75886       -2.41086
H         11.04008       -6.52459       -2.01868
H         10.95572       -5.99085        0.42140
H         10.93359       -4.22258        0.04402
H         13.23846       -4.98548        0.66881
H         13.18111       -4.41352       -1.02683
H         11.41192       -7.55776       -1.07810
H         11.45472       -9.99617       -1.89737
H         12.91848      -10.85837       -1.28181
H         12.85944      -10.28643       -2.99724
H         16.80952       -6.48209       -0.93159
H         15.86846       -5.65449        0.36700
H         15.78003       -5.05803       -1.34195
51

C          6.76815       -0.04654       -6.44552
C          6.32343       -1.15786       -5.49930
C          6.85844       -2.52024       -5.95516
C          8.39169       -2.52618       -5.97495
C          8.96178       -2.25361       -4.57835
C          8.51229       -3.33052       -3.58274
C          9.06739       -3.04600       -2.18277
C          8.63800       -4.12970       -1.18420
C          9.16670       -5.50200       -1.61870
C         10.69960       -5.52070       -1.68120
C         11.29626       -5.21662       -0.30104
C         10.86873       -6.25775        0.73777
C         11.34532       -7.62686        0.33232
C         10.46628       -8.69800        0.10253
C         11.11746       -9.86878       -0.27027
C         10.46857      -11.17725       -0.57639
S         12.77314       -9.58738       -0.32497
C         12.68539       -7.96981        0.13121
C         13.86916       -7.06889        0.27661
H          6.36706        0.92617       -6.09077
H          6.38562       -0.23691       -7.47092
H          7.87693        0.01467       -6.47440
H          5.21205       -1.18290       -5.47247
H          6.70022       -0.93155       -4.47788
H          6.47667       -2.74168       -6.97637
H          6.49660       -3.30881       -5.25878
H          8.75209       -1.74236       -6.67732
H          8.74993       -3.51768       -6.32988
H          8.61051       -1.25824       -4.22641
H         10.07286       -2.24272       -4.63106
H          8.87609       -4.32372       -3.92713
H          7.40089       -3.35063       -3.54028
H          8.69315       -2.05847       -1.83393
H         10.17831       -3.01153       -2.23005
H          7.52706       -4.16349       -1.13059
H          9.03883       -3.88184       -0.17727
H          8.75950       -5.74690       -2.62460
H          8.82050       -6.27200       -0.89470
H         11.05121       -4.75886       -2.41086
H         11.04008       -6.52459       -2.01868
H         10.95165       -4.21258        0.03136
H         12.40664       -5.20588       -0.37615
H          9.76151       -6.26829        0.84120
H         11.29022       -5.98937        1.73052
H          9.39157       -8.62158        0.20654
H          9.36583      -11.10372       -0.46962
H         10.84769      -11.94998        0.12436
H         10.71172      -11.47758       -1.61680
H         14.80210       -7.61772        0.03041
H         13.93526       -6.70271        1.32200
H         13.77055       -6.20502       -0.41272
