
 OpenBabel02012214033D

 51 51  0  0  0  0  0  0  0  0999 V2000
    0.8993   -0.0646    0.3065 C   0  0  0  0  0  0  0  0  0  0  0  0
    2.4178   -0.0697    0.2589 C   0  0  0  0  0  0  0  0  0  0  0  0
    2.9536   -1.4320   -0.1762 C   0  0  0  0  0  0  0  0  0  0  0  0
    4.4797   -1.4300   -0.2231 C   0  0  0  0  0  0  0  0  0  0  0  0
    5.0196   -2.7898   -0.6602 C   0  0  0  0  0  0  0  0  0  0  0  0
    6.5453   -2.7760   -0.7032 C   0  0  0  0  0  0  0  0  0  0  0  0
    7.0961   -4.1298   -1.1383 C   0  0  0  0  0  0  0  0  0  0  0  0
    8.6227   -4.1123   -1.1760 C   0  0  0  0  0  0  0  0  0  0  0  0
    9.1619   -5.4698   -1.6132 C   0  0  0  0  0  0  0  0  0  0  0  0
   10.6883   -5.4828   -1.6658 C   0  0  0  0  0  0  0  0  0  0  0  0
   11.1840   -6.8586   -2.1046 C   0  0  0  0  0  0  0  0  0  0  0  0
   12.7080   -6.9167   -2.1929 C   0  0  0  0  0  0  0  0  0  0  0  0
   13.1795   -8.2823   -2.6096 C   0  0  0  0  0  0  0  0  0  0  0  0
   13.4449   -9.3424   -1.6806 C   0  0  0  0  0  0  0  0  0  0  0  0
   13.8596  -10.5034   -2.2956 C   0  0  0  0  0  0  0  0  0  0  0  0
   14.2323  -11.8013   -1.6679 C   0  0  0  0  0  0  0  0  0  0  0  0
   13.9236  -10.3255   -3.9900 S   0  0  0  0  0  0  0  0  0  0  0  0
   13.3930   -8.7002   -3.9145 C   0  0  0  0  0  0  0  0  0  0  0  0
   13.2234   -7.9233   -5.1791 C   0  0  0  0  0  0  0  0  0  0  0  0
    0.5328    0.9182    0.6180 H   0  0  0  0  0  0  0  0  0  0  0  0
    0.5283   -0.8084    1.0192 H   0  0  0  0  0  0  0  0  0  0  0  0
    0.4761   -0.2907   -0.6774 H   0  0  0  0  0  0  0  0  0  0  0  0
    2.8116    0.1875    1.2491 H   0  0  0  0  0  0  0  0  0  0  0  0
    2.7597    0.7048   -0.4379 H   0  0  0  0  0  0  0  0  0  0  0  0
    2.5548   -1.6877   -1.1652 H   0  0  0  0  0  0  0  0  0  0  0  0
    2.6078   -2.2047    0.5216 H   0  0  0  0  0  0  0  0  0  0  0  0
    4.8785   -1.1773    0.7666 H   0  0  0  0  0  0  0  0  0  0  0  0
    4.8261   -0.6566   -0.9191 H   0  0  0  0  0  0  0  0  0  0  0  0
    4.6238   -3.0451   -1.6508 H   0  0  0  0  0  0  0  0  0  0  0  0
    4.6765   -3.5657    0.0354 H   0  0  0  0  0  0  0  0  0  0  0  0
    6.9398   -2.5196    0.2885 H   0  0  0  0  0  0  0  0  0  0  0  0
    6.8879   -1.9981   -1.3984 H   0  0  0  0  0  0  0  0  0  0  0  0
    6.7048   -4.3855   -2.1310 H   0  0  0  0  0  0  0  0  0  0  0  0
    6.7525   -4.9080   -0.4458 H   0  0  0  0  0  0  0  0  0  0  0  0
    9.0149   -3.8598   -0.1831 H   0  0  0  0  0  0  0  0  0  0  0  0
    8.9672   -3.3353   -1.8689 H   0  0  0  0  0  0  0  0  0  0  0  0
    8.7599   -5.7211   -2.6026 H   0  0  0  0  0  0  0  0  0  0  0  0
    8.8125   -6.2435   -0.9181 H   0  0  0  0  0  0  0  0  0  0  0  0
   11.0970   -5.2362   -0.6783 H   0  0  0  0  0  0  0  0  0  0  0  0
   11.0427   -4.7166   -2.3657 H   0  0  0  0  0  0  0  0  0  0  0  0
   10.7470   -7.1098   -3.0794 H   0  0  0  0  0  0  0  0  0  0  0  0
   10.8253   -7.6166   -1.3964 H   0  0  0  0  0  0  0  0  0  0  0  0
   13.1460   -6.6655   -1.2186 H   0  0  0  0  0  0  0  0  0  0  0  0
   13.0736   -6.1625   -2.9003 H   0  0  0  0  0  0  0  0  0  0  0  0
   13.3328   -9.2493   -0.6070 H   0  0  0  0  0  0  0  0  0  0  0  0
   14.0556  -11.7788   -0.5872 H   0  0  0  0  0  0  0  0  0  0  0  0
   15.2938  -12.0157   -1.8299 H   0  0  0  0  0  0  0  0  0  0  0  0
   13.6413  -12.6234   -2.0853 H   0  0  0  0  0  0  0  0  0  0  0  0
   13.2519   -8.5622   -6.0679 H   0  0  0  0  0  0  0  0  0  0  0  0
   14.0199   -7.1779   -5.2714 H   0  0  0  0  0  0  0  0  0  0  0  0
   12.2613   -7.4004   -5.1823 H   0  0  0  0  0  0  0  0  0  0  0  0
  1  2  1  0  0  0  0
  1 20  1  0  0  0  0
  1 21  1  0  0  0  0
  1 22  1  0  0  0  0
  2  3  1  0  0  0  0
  2 23  1  0  0  0  0
  2 24  1  0  0  0  0
  3  4  1  0  0  0  0
  3 25  1  0  0  0  0
  3 26  1  0  0  0  0
  4  5  1  0  0  0  0
  4 27  1  0  0  0  0
  4 28  1  0  0  0  0
  5  6  1  0  0  0  0
  5 29  1  0  0  0  0
  5 30  1  0  0  0  0
  6  7  1  0  0  0  0
  6 31  1  0  0  0  0
  6 32  1  0  0  0  0
  7  8  1  0  0  0  0
  7 33  1  0  0  0  0
  7 34  1  0  0  0  0
  8  9  1  0  0  0  0
  8 35  1  0  0  0  0
  8 36  1  0  0  0  0
  9 10  1  0  0  0  0
  9 37  1  0  0  0  0
  9 38  1  0  0  0  0
 10 11  1  0  0  0  0
 10 39  1  0  0  0  0
 10 40  1  0  0  0  0
 11 12  1  0  0  0  0
 11 41  1  0  0  0  0
 11 42  1  0  0  0  0
 12 13  1  0  0  0  0
 12 43  1  0  0  0  0
 12 44  1  0  0  0  0
 13 14  1  0  0  0  0
 13 18  2  0  0  0  0
 14 15  2  0  0  0  0
 14 45  1  0  0  0  0
 15 16  1  0  0  0  0
 15 17  1  0  0  0  0
 16 46  1  0  0  0  0
 16 47  1  0  0  0  0
 16 48  1  0  0  0  0
 17 18  1  0  0  0  0
 18 19  1  0  0  0  0
 19 49  1  0  0  0  0
 19 50  1  0  0  0  0
 19 51  1  0  0  0  0
M  END
