
 OpenBabel02012214033D

 51 51  0  0  0  0  0  0  0  0999 V2000
    0.8792   -0.0625    0.3082 C   0  0  0  0  0  0  0  0  0  0  0  0
    2.4043   -0.0609    0.2613 C   0  0  0  0  0  0  0  0  0  0  0  0
    2.9462   -1.4268   -0.1755 C   0  0  0  0  0  0  0  0  0  0  0  0
    4.4789   -1.4175   -0.2203 C   0  0  0  0  0  0  0  0  0  0  0  0
    5.0256   -2.7812   -0.6576 C   0  0  0  0  0  0  0  0  0  0  0  0
    6.5589   -2.7691   -0.7009 C   0  0  0  0  0  0  0  0  0  0  0  0
    7.1038   -4.1333   -1.1380 C   0  0  0  0  0  0  0  0  0  0  0  0
    8.6380   -4.1297   -1.1842 C   0  0  0  0  0  0  0  0  0  0  0  0
    9.1667   -5.5020   -1.6187 C   0  0  0  0  0  0  0  0  0  0  0  0
   10.6996   -5.5207   -1.6812 C   0  0  0  0  0  0  0  0  0  0  0  0
   11.2018   -6.9045   -2.1127 C   0  0  0  0  0  0  0  0  0  0  0  0
   12.7298   -6.9423   -2.2109 C   0  0  0  0  0  0  0  0  0  0  0  0
   13.1927   -8.3111   -2.6329 C   0  0  0  0  0  0  0  0  0  0  0  0
   13.4469   -9.3420   -1.7134 C   0  0  0  0  0  0  0  0  0  0  0  0
   13.8562  -10.5252   -2.3186 C   0  0  0  0  0  0  0  0  0  0  0  0
   14.2069  -11.7958   -1.6190 C   0  0  0  0  0  0  0  0  0  0  0  0
   13.8993  -10.3083   -3.9843 S   0  0  0  0  0  0  0  0  0  0  0  0
   13.4020   -8.7007   -3.9589 C   0  0  0  0  0  0  0  0  0  0  0  0
   13.2125   -7.8569   -5.1780 C   0  0  0  0  0  0  0  0  0  0  0  0
    0.5162    0.9374    0.6265 H   0  0  0  0  0  0  0  0  0  0  0  0
    0.5164   -0.8209    1.0343 H   0  0  0  0  0  0  0  0  0  0  0  0
    0.4627   -0.2894   -0.6963 H   0  0  0  0  0  0  0  0  0  0  0  0
    2.7941    0.1898    1.2721 H   0  0  0  0  0  0  0  0  0  0  0  0
    2.7404    0.7205   -0.4549 H   0  0  0  0  0  0  0  0  0  0  0  0
    2.5503   -1.6730   -1.1856 H   0  0  0  0  0  0  0  0  0  0  0  0
    2.6040   -2.2046    0.5426 H   0  0  0  0  0  0  0  0  0  0  0  0
    4.8735   -1.1714    0.7903 H   0  0  0  0  0  0  0  0  0  0  0  0
    4.8200   -0.6388   -0.9377 H   0  0  0  0  0  0  0  0  0  0  0  0
    4.6314   -3.0276   -1.6685 H   0  0  0  0  0  0  0  0  0  0  0  0
    4.6844   -3.5605    0.0591 H   0  0  0  0  0  0  0  0  0  0  0  0
    6.9528   -2.5231    0.3099 H   0  0  0  0  0  0  0  0  0  0  0  0
    6.9000   -1.9902   -1.4181 H   0  0  0  0  0  0  0  0  0  0  0  0
    6.7082   -4.3794   -2.1479 H   0  0  0  0  0  0  0  0  0  0  0  0
    6.7612   -4.9109   -0.4200 H   0  0  0  0  0  0  0  0  0  0  0  0
    9.0375   -3.8841   -0.1751 H   0  0  0  0  0  0  0  0  0  0  0  0
    8.9826   -3.3565   -1.9049 H   0  0  0  0  0  0  0  0  0  0  0  0
    8.7595   -5.7469   -2.6246 H   0  0  0  0  0  0  0  0  0  0  0  0
    8.8205   -6.2720   -0.8947 H   0  0  0  0  0  0  0  0  0  0  0  0
   11.1155   -5.2732   -0.6801 H   0  0  0  0  0  0  0  0  0  0  0  0
   11.0456   -4.7568   -2.4122 H   0  0  0  0  0  0  0  0  0  0  0  0
   10.7700   -7.1548   -3.1068 H   0  0  0  0  0  0  0  0  0  0  0  0
   10.8614   -7.6645   -1.3743 H   0  0  0  0  0  0  0  0  0  0  0  0
   13.1865   -6.6846   -1.2302 H   0  0  0  0  0  0  0  0  0  0  0  0
   13.0755   -6.1832   -2.9454 H   0  0  0  0  0  0  0  0  0  0  0  0
   13.3375   -9.2277   -0.6426 H   0  0  0  0  0  0  0  0  0  0  0  0
   14.0973  -11.6826   -0.5199 H   0  0  0  0  0  0  0  0  0  0  0  0
   15.2582  -12.0663   -1.8503 H   0  0  0  0  0  0  0  0  0  0  0  0
   13.5361  -12.6085   -1.9673 H   0  0  0  0  0  0  0  0  0  0  0  0
   13.4355   -8.4465   -6.0917 H   0  0  0  0  0  0  0  0  0  0  0  0
   13.8969   -6.9843   -5.1399 H   0  0  0  0  0  0  0  0  0  0  0  0
   12.1625   -7.5019   -5.2295 H   0  0  0  0  0  0  0  0  0  0  0  0
  1  2  1  0  0  0  0
  1 20  1  0  0  0  0
  1 21  1  0  0  0  0
  1 22  1  0  0  0  0
  2  3  1  0  0  0  0
  2 23  1  0  0  0  0
  2 24  1  0  0  0  0
  3  4  1  0  0  0  0
  3 25  1  0  0  0  0
  3 26  1  0  0  0  0
  4  5  1  0  0  0  0
  4 27  1  0  0  0  0
  4 28  1  0  0  0  0
  5  6  1  0  0  0  0
  5 29  1  0  0  0  0
  5 30  1  0  0  0  0
  6  7  1  0  0  0  0
  6 31  1  0  0  0  0
  6 32  1  0  0  0  0
  7  8  1  0  0  0  0
  7 33  1  0  0  0  0
  7 34  1  0  0  0  0
  8  9  1  0  0  0  0
  8 35  1  0  0  0  0
  8 36  1  0  0  0  0
  9 10  1  0  0  0  0
  9 37  1  0  0  0  0
  9 38  1  0  0  0  0
 10 11  1  0  0  0  0
 10 39  1  0  0  0  0
 10 40  1  0  0  0  0
 11 12  1  0  0  0  0
 11 41  1  0  0  0  0
 11 42  1  0  0  0  0
 12 13  1  0  0  0  0
 12 43  1  0  0  0  0
 12 44  1  0  0  0  0
 13 14  1  0  0  0  0
 13 18  2  0  0  0  0
 14 15  2  0  0  0  0
 14 45  1  0  0  0  0
 15 16  1  0  0  0  0
 15 17  1  0  0  0  0
 16 46  1  0  0  0  0
 16 47  1  0  0  0  0
 16 48  1  0  0  0  0
 17 18  1  0  0  0  0
 18 19  1  0  0  0  0
 19 49  1  0  0  0  0
 19 50  1  0  0  0  0
 19 51  1  0  0  0  0
M  END
