
  xtb     02032211353D
 xtb: 6.4.1 (23d549d)
 53 53  0     0  0            999 V2000
    2.4535    0.8726    3.0118 C   0  0  0  0  0  0  0  0  0  0  0  0
    2.1594   -0.3271    2.5167 C   0  0  0  0  0  0  0  0  0  0  0  0
    1.4641   -0.6523    1.2961 C   0  0  0  0  0  0  0  0  0  0  0  0
    1.7165   -2.2625    0.6830 S   0  0  0  0  0  0  0  0  0  0  0  0
    0.6515   -1.9790   -0.6599 C   0  0  0  0  0  0  0  0  0  0  0  0
    0.4432   -3.0032   -1.6479 C   0  0  0  0  0  0  0  0  0  0  0  0
    0.9371   -4.2366   -1.5784 C   0  0  0  0  0  0  0  0  0  0  0  0
    0.1177   -0.7094   -0.6074 C   0  0  0  0  0  0  0  0  0  0  0  0
   -0.9085   -0.1947   -1.5719 C   0  0  0  0  0  0  0  0  0  0  0  0
   -2.3332   -0.3980   -1.0320 C   0  0  0  0  0  0  0  0  0  0  0  0
   -2.7371   -1.8683   -0.9891 C   0  0  0  0  0  0  0  0  0  0  0  0
   -4.0970   -2.1034   -0.3304 C   0  0  0  0  0  0  0  0  0  0  0  0
   -4.1695   -1.7163    1.1486 C   0  0  0  0  0  0  0  0  0  0  0  0
   -3.1311   -2.4250    2.0109 C   0  0  0  0  0  0  0  0  0  0  0  0
    0.5807    0.0459    0.5030 C   0  0  0  0  0  0  0  0  0  0  0  0
    0.1571    1.4579    0.7649 C   0  0  0  0  0  0  0  0  0  0  0  0
    1.0666    2.4538    0.0339 C   0  0  0  0  0  0  0  0  0  0  0  0
    0.6674    3.8962    0.3332 C   0  0  0  0  0  0  0  0  0  0  0  0
    1.6111    4.9282   -0.2863 C   0  0  0  0  0  0  0  0  0  0  0  0
    1.6649    4.9178   -1.8151 C   0  0  0  0  0  0  0  0  0  0  0  0
    0.3241    5.2335   -2.4678 C   0  0  0  0  0  0  0  0  0  0  0  0
    2.9814    0.9599    3.9463 H   0  0  0  0  0  0  0  0  0  0  0  0
    2.2103    1.7959    2.5208 H   0  0  0  0  0  0  0  0  0  0  0  0
    2.4956   -1.2027    3.0607 H   0  0  0  0  0  0  0  0  0  0  0  0
   -0.1627   -2.7175   -2.4968 H   0  0  0  0  0  0  0  0  0  0  0  0
    1.5388   -4.5566   -0.7437 H   0  0  0  0  0  0  0  0  0  0  0  0
    0.7543   -4.9623   -2.3509 H   0  0  0  0  0  0  0  0  0  0  0  0
   -0.8127   -0.7003   -2.5336 H   0  0  0  0  0  0  0  0  0  0  0  0
   -0.7427    0.8700   -1.7435 H   0  0  0  0  0  0  0  0  0  0  0  0
   -3.0348    0.1511   -1.6651 H   0  0  0  0  0  0  0  0  0  0  0  0
   -2.3898    0.0214   -0.0270 H   0  0  0  0  0  0  0  0  0  0  0  0
   -1.9766   -2.4401   -0.4570 H   0  0  0  0  0  0  0  0  0  0  0  0
   -2.7791   -2.2547   -2.0110 H   0  0  0  0  0  0  0  0  0  0  0  0
   -4.3402   -3.1650   -0.4228 H   0  0  0  0  0  0  0  0  0  0  0  0
   -4.8607   -1.5422   -0.8756 H   0  0  0  0  0  0  0  0  0  0  0  0
   -5.1677   -1.9708    1.5139 H   0  0  0  0  0  0  0  0  0  0  0  0
   -4.0541   -0.6363    1.2578 H   0  0  0  0  0  0  0  0  0  0  0  0
   -3.1785   -3.5010    1.8573 H   0  0  0  0  0  0  0  0  0  0  0  0
   -3.3143   -2.2205    3.0636 H   0  0  0  0  0  0  0  0  0  0  0  0
   -2.1256   -2.0865    1.7738 H   0  0  0  0  0  0  0  0  0  0  0  0
    0.1829    1.6505    1.8389 H   0  0  0  0  0  0  0  0  0  0  0  0
   -0.8696    1.6075    0.4277 H   0  0  0  0  0  0  0  0  0  0  0  0
    1.0051    2.2647   -1.0390 H   0  0  0  0  0  0  0  0  0  0  0  0
    2.1042    2.2889    0.3326 H   0  0  0  0  0  0  0  0  0  0  0  0
    0.6665    4.0435    1.4170 H   0  0  0  0  0  0  0  0  0  0  0  0
   -0.3519    4.0714   -0.0155 H   0  0  0  0  0  0  0  0  0  0  0  0
    2.6201    4.7553    0.0971 H   0  0  0  0  0  0  0  0  0  0  0  0
    1.2995    5.9224    0.0444 H   0  0  0  0  0  0  0  0  0  0  0  0
    2.0226    3.9484   -2.1664 H   0  0  0  0  0  0  0  0  0  0  0  0
    2.3954    5.6662   -2.1319 H   0  0  0  0  0  0  0  0  0  0  0  0
   -0.4024    4.4488   -2.2726 H   0  0  0  0  0  0  0  0  0  0  0  0
    0.4414    5.3225   -3.5456 H   0  0  0  0  0  0  0  0  0  0  0  0
   -0.0726    6.1726   -2.0876 H   0  0  0  0  0  0  0  0  0  0  0  0
  1  2  2  0  0  0  0
  2  3  1  0  0  0  0
  3  4  1  0  0  0  0
  4  5  1  0  0  0  0
  5  6  1  0  0  0  0
  6  7  2  0  0  0  0
  5  8  4  0  0  0  0
  8  9  1  0  0  0  0
  9 10  1  0  0  0  0
 10 11  1  0  0  0  0
 11 12  1  0  0  0  0
 12 13  1  0  0  0  0
 13 14  1  0  0  0  0
  3 15  4  0  0  0  0
  8 15  4  0  0  0  0
 15 16  1  0  0  0  0
 16 17  1  0  0  0  0
 17 18  1  0  0  0  0
 18 19  1  0  0  0  0
 19 20  1  0  0  0  0
 20 21  1  0  0  0  0
  1 22  1  0  0  0  0
  1 23  1  0  0  0  0
  2 24  1  0  0  0  0
  6 25  1  0  0  0  0
  7 26  1  0  0  0  0
  7 27  1  0  0  0  0
  9 28  1  0  0  0  0
  9 29  1  0  0  0  0
 10 30  1  0  0  0  0
 10 31  1  0  0  0  0
 11 32  1  0  0  0  0
 11 33  1  0  0  0  0
 12 34  1  0  0  0  0
 12 35  1  0  0  0  0
 13 36  1  0  0  0  0
 13 37  1  0  0  0  0
 14 38  1  0  0  0  0
 14 39  1  0  0  0  0
 14 40  1  0  0  0  0
 16 41  1  0  0  0  0
 16 42  1  0  0  0  0
 17 43  1  0  0  0  0
 17 44  1  0  0  0  0
 18 45  1  0  0  0  0
 18 46  1  0  0  0  0
 19 47  1  0  0  0  0
 19 48  1  0  0  0  0
 20 49  1  0  0  0  0
 20 50  1  0  0  0  0
 21 51  1  0  0  0  0
 21 52  1  0  0  0  0
 21 53  1  0  0  0  0
M  END
