
  xtb     02032210443D
 xtb: 6.4.1 (23d549d)
 37 40  0     0  0            999 V2000
    1.9081   -4.9000   -1.6573 f   0  0  0  0  0  0  0  0  0  0  0  0
    3.1082   -4.3324   -1.5532 c   0  0  0  0  0  0  0  0  0  0  0  0
    4.0274   -5.1906   -1.9789 f   0  0  0  0  0  0  0  0  0  0  0  0
    3.2895   -3.1031   -1.0915 c   0  0  0  0  0  0  0  0  0  0  0  0
    4.5346   -2.3727   -0.9293 c   0  0  0  0  0  0  0  0  0  0  0  0
    4.4689   -1.0519   -0.4761 c   0  0  0  0  0  0  0  0  0  0  0  0
    5.6113   -0.3014   -0.2980 c   0  0  0  0  0  0  0  0  0  0  0  0
    6.8601   -0.8548   -0.5708 c   0  0  0  0  0  0  0  0  0  0  0  0
    8.0325   -0.0955   -0.3893 n   0  0  0  0  0  0  0  0  0  0  0  0
    9.0018   -0.4977    0.5341 c   0  0  0  0  0  0  0  0  0  0  0  0
   10.1735    0.2581    0.6734 c   0  0  0  0  0  0  0  0  0  0  0  0
   10.4050    1.3994   -0.0529 o   0  0  0  0  0  0  0  0  0  0  0  0
    9.4395    1.7872   -0.9481 c   0  0  0  0  0  0  0  0  0  0  0  0
    8.2575    1.0599   -1.1429 c   0  0  0  0  0  0  0  0  0  0  0  0
    7.3707    1.4949   -2.1197 c   0  0  0  0  0  0  0  0  0  0  0  0
    7.6267    2.6450   -2.8511 c   0  0  0  0  0  0  0  0  0  0  0  0
    8.7773    3.3730   -2.6272 c   0  0  0  0  0  0  0  0  0  0  0  0
    9.6889    2.9342   -1.6783 c   0  0  0  0  0  0  0  0  0  0  0  0
   11.1494   -0.1165    1.5781 c   0  0  0  0  0  0  0  0  0  0  0  0
   10.9733   -1.2388    2.3741 c   0  0  0  0  0  0  0  0  0  0  0  0
    9.8069   -1.9689    2.2704 c   0  0  0  0  0  0  0  0  0  0  0  0
    8.8262   -1.5989    1.3625 c   0  0  0  0  0  0  0  0  0  0  0  0
    6.9365   -2.1702   -1.0228 c   0  0  0  0  0  0  0  0  0  0  0  0
    5.7919   -2.9194   -1.1987 c   0  0  0  0  0  0  0  0  0  0  0  0
    2.3859   -2.5842   -0.8054 h   0  0  0  0  0  0  0  0  0  0  0  0
    3.5064   -0.6140   -0.2559 h   0  0  0  0  0  0  0  0  0  0  0  0
    5.5468    0.7154    0.0600 h   0  0  0  0  0  0  0  0  0  0  0  0
    6.4763    0.9257   -2.3191 h   0  0  0  0  0  0  0  0  0  0  0  0
    6.9171    2.9611   -3.6001 h   0  0  0  0  0  0  0  0  0  0  0  0
    8.9794    4.2705   -3.1900 h   0  0  0  0  0  0  0  0  0  0  0  0
   10.6078    3.4670   -1.4928 h   0  0  0  0  0  0  0  0  0  0  0  0
   12.0393    0.4882    1.6480 h   0  0  0  0  0  0  0  0  0  0  0  0
   11.7417   -1.5252    3.0745 h   0  0  0  0  0  0  0  0  0  0  0  0
    9.6450   -2.8324    2.8970 h   0  0  0  0  0  0  0  0  0  0  0  0
    7.9123   -2.1691    1.3045 h   0  0  0  0  0  0  0  0  0  0  0  0
    7.9031   -2.5994   -1.2408 h   0  0  0  0  0  0  0  0  0  0  0  0
    5.8822   -3.9328   -1.5531 h   0  0  0  0  0  0  0  0  0  0  0  0
  1  2  1  0  0  0  0
  2  3  1  0  0  0  0
  2  4  2  0  0  0  0
  4  5  1  0  0  0  0
  5  6  4  0  0  0  0
  6  7  4  0  0  0  0
  7  8  4  0  0  0  0
  8  9  1  0  0  0  0
  9 10  1  0  0  0  0
 10 11  4  0  0  0  0
 11 12  1  0  0  0  0
 12 13  1  0  0  0  0
  9 14  1  0  0  0  0
 13 14  4  0  0  0  0
 14 15  4  0  0  0  0
 15 16  4  0  0  0  0
 16 17  4  0  0  0  0
 13 18  4  0  0  0  0
 17 18  4  0  0  0  0
 11 19  4  0  0  0  0
 19 20  4  0  0  0  0
 20 21  4  0  0  0  0
 10 22  4  0  0  0  0
 21 22  4  0  0  0  0
  8 23  4  0  0  0  0
  5 24  4  0  0  0  0
 23 24  4  0  0  0  0
  4 25  1  0  0  0  0
  6 26  1  0  0  0  0
  7 27  1  0  0  0  0
 15 28  1  0  0  0  0
 16 29  1  0  0  0  0
 17 30  1  0  0  0  0
 18 31  1  0  0  0  0
 19 32  1  0  0  0  0
 20 33  1  0  0  0  0
 21 34  1  0  0  0  0
 22 35  1  0  0  0  0
 23 36  1  0  0  0  0
 24 37  1  0  0  0  0
M  END
