
  xtb     02032211353D
 xtb: 6.4.1 (23d549d)
 26 26  0     0  0            999 V2000
   -4.6477    0.1814    0.5176 C   0  0  0  0  0  0  0  0  0  0  0  0
   -3.7418   -0.7705    0.3287 C   0  0  0  0  0  0  0  0  0  0  0  0
   -2.3268   -0.5859    0.0300 C   0  0  0  0  0  0  0  0  0  0  0  0
   -1.5188   -1.7110   -0.1455 C   0  0  0  0  0  0  0  0  0  0  0  0
   -0.1811   -1.5757   -0.4505 C   0  0  0  0  0  0  0  0  0  0  0  0
    0.4099   -0.3241   -0.5673 C   0  0  0  0  0  0  0  0  0  0  0  0
    1.8657   -0.2390   -0.9313 C   0  0  0  0  0  0  0  0  0  0  0  0
    2.7682   -0.4063    0.2853 C   0  0  0  0  0  0  0  0  0  0  0  0
    2.4103   -0.7805    1.3605 O   0  0  0  0  0  0  0  0  0  0  0  0
    4.0647   -0.1106    0.0546 O   0  0  0  0  0  0  0  0  0  0  0  0
   -0.3751    0.8157   -0.3630 C   0  0  0  0  0  0  0  0  0  0  0  0
    0.1529    2.1843   -0.4228 C   0  0  0  0  0  0  0  0  0  0  0  0
    1.2548    2.6088    0.1777 C   0  0  0  0  0  0  0  0  0  0  0  0
   -1.7321    0.6654   -0.0953 C   0  0  0  0  0  0  0  0  0  0  0  0
   -5.6741   -0.0594    0.7352 H   0  0  0  0  0  0  0  0  0  0  0  0
   -4.4129    1.2307    0.4670 H   0  0  0  0  0  0  0  0  0  0  0  0
   -4.0512   -1.8066    0.3967 H   0  0  0  0  0  0  0  0  0  0  0  0
   -1.9498   -2.6973   -0.0509 H   0  0  0  0  0  0  0  0  0  0  0  0
    0.4241   -2.4585   -0.5987 H   0  0  0  0  0  0  0  0  0  0  0  0
    2.0863    0.7169   -1.4141 H   0  0  0  0  0  0  0  0  0  0  0  0
    2.1176   -1.0488   -1.6247 H   0  0  0  0  0  0  0  0  0  0  0  0
    4.2292    0.1785   -0.8523 H   0  0  0  0  0  0  0  0  0  0  0  0
   -0.4677    2.8893   -0.9642 H   0  0  0  0  0  0  0  0  0  0  0  0
    1.8651    1.9577    0.7811 H   0  0  0  0  0  0  0  0  0  0  0  0
    1.5661    3.6388    0.1237 H   0  0  0  0  0  0  0  0  0  0  0  0
   -2.3256    1.5569    0.0401 H   0  0  0  0  0  0  0  0  0  0  0  0
  1  2  2  0  0  0  0
  2  3  1  0  0  0  0
  3  4  4  0  0  0  0
  4  5  4  0  0  0  0
  5  6  4  0  0  0  0
  6  7  1  0  0  0  0
  7  8  1  0  0  0  0
  8  9  2  0  0  0  0
  8 10  1  0  0  0  0
  6 11  4  0  0  0  0
 11 12  1  0  0  0  0
 12 13  2  0  0  0  0
  3 14  4  0  0  0  0
 11 14  4  0  0  0  0
  1 15  1  0  0  0  0
  1 16  1  0  0  0  0
  2 17  1  0  0  0  0
  4 18  1  0  0  0  0
  5 19  1  0  0  0  0
  7 20  1  0  0  0  0
  7 21  1  0  0  0  0
 10 22  1  0  0  0  0
 12 23  1  0  0  0  0
 13 24  1  0  0  0  0
 13 25  1  0  0  0  0
 14 26  1  0  0  0  0
M  END
