
 OpenBabel02032211243D

 20 20  0  0  0  0  0  0  0  0999 V2000
    0.9702    0.3943   -0.3998 C   0  0  0  0  0  0  0  0  0  0  0  0
    2.1404   -0.1510   -0.0504 C   0  0  0  0  0  0  0  0  0  0  0  0
    2.9360   -1.0059   -0.9634 C   0  0  0  0  0  0  0  0  0  0  0  0
    2.6288   -1.3540   -2.2664 C   0  0  0  0  0  0  0  0  0  0  0  0
    3.6669   -2.1592   -2.6946 C   0  0  0  0  0  0  0  0  0  0  0  0
    3.7902   -2.7799   -4.0264 C   0  0  0  0  0  0  0  0  0  0  0  0
    2.9239   -2.5982   -4.8672 O   0  0  0  0  0  0  0  0  0  0  0  0
    4.8549   -3.5516   -4.3316 O   0  0  0  0  0  0  0  0  0  0  0  0
    4.5516   -2.3020   -1.7333 O   0  0  0  0  0  0  0  0  0  0  0  0
    4.1465   -1.6243   -0.6807 C   0  0  0  0  0  0  0  0  0  0  0  0
    4.8960   -1.5607    0.5906 C   0  0  0  0  0  0  0  0  0  0  0  0
    6.0525   -2.2094    0.7536 C   0  0  0  0  0  0  0  0  0  0  0  0
    0.4303    1.0114    0.3112 H   0  0  0  0  0  0  0  0  0  0  0  0
    0.5338    0.2393   -1.3799 H   0  0  0  0  0  0  0  0  0  0  0  0
    2.5130    0.0467    0.9485 H   0  0  0  0  0  0  0  0  0  0  0  0
    1.7605   -1.0637   -2.8424 H   0  0  0  0  0  0  0  0  0  0  0  0
    5.5634   -3.7214   -3.6947 H   0  0  0  0  0  0  0  0  0  0  0  0
    4.5087   -0.9785    1.4194 H   0  0  0  0  0  0  0  0  0  0  0  0
    6.4826   -2.8072   -0.0443 H   0  0  0  0  0  0  0  0  0  0  0  0
    6.5805   -2.1452    1.6994 H   0  0  0  0  0  0  0  0  0  0  0  0
  1  2  2  0  0  0  0
  1 13  1  0  0  0  0
  1 14  1  0  0  0  0
  2  3  1  0  0  0  0
  2 15  1  0  0  0  0
  3  4  1  0  0  0  0
  3 10  2  0  0  0  0
  4  5  2  0  0  0  0
  4 16  1  0  0  0  0
  5  6  1  0  0  0  0
  5  9  1  0  0  0  0
  6  7  2  0  0  0  0
  6  8  1  0  0  0  0
  8 17  1  0  0  0  0
  9 10  1  0  0  0  0
 10 11  1  0  0  0  0
 11 12  2  0  0  0  0
 11 18  1  0  0  0  0
 12 19  1  0  0  0  0
 12 20  1  0  0  0  0
M  END
