
 OpenBabel02012214123D

 22 23  0  0  0  0  0  0  0  0999 V2000
    0.9984   -0.1176   -0.0012 C   0  0  0  0  0  0  0  0  0  0  0  0
    2.5000   -0.0700   -0.0108 C   0  0  0  0  0  0  0  0  0  0  0  0
    3.2403   -1.2642   -0.0615 C   0  0  0  0  0  0  0  0  0  0  0  0
    4.6351   -1.2593   -0.0668 C   0  0  0  0  0  0  0  0  0  0  0  0
    5.3693   -0.0642   -0.0223 C   0  0  0  0  0  0  0  0  0  0  0  0
    6.8689   -0.0870   -0.0186 C   0  0  0  0  0  0  0  0  0  0  0  0
    4.6169    1.1234    0.0206 C   0  0  0  0  0  0  0  0  0  0  0  0
    5.0396    2.4357    0.0576 N   0  0  0  0  0  0  0  0  0  0  0  0
    3.9690    3.2867    0.0695 C   0  0  0  0  0  0  0  0  0  0  0  0
    2.8286    2.5185    0.0684 C   0  0  0  0  0  0  0  0  0  0  0  0
    3.2205    1.1475    0.0271 C   0  0  0  0  0  0  0  0  0  0  0  0
    0.6239   -1.1435   -0.0746 H   0  0  0  0  0  0  0  0  0  0  0  0
    0.6006    0.4474   -0.8499 H   0  0  0  0  0  0  0  0  0  0  0  0
    0.6161    0.3170    0.9279 H   0  0  0  0  0  0  0  0  0  0  0  0
    2.7216   -2.2207   -0.0992 H   0  0  0  0  0  0  0  0  0  0  0  0
    5.1574   -2.2132   -0.1091 H   0  0  0  0  0  0  0  0  0  0  0  0
    7.2584   -1.1061   -0.1066 H   0  0  0  0  0  0  0  0  0  0  0  0
    7.2476    0.3411    0.9150 H   0  0  0  0  0  0  0  0  0  0  0  0
    7.2562    0.4950   -0.8607 H   0  0  0  0  0  0  0  0  0  0  0  0
    6.0093    2.7206    0.0606 H   0  0  0  0  0  0  0  0  0  0  0  0
    4.1089    4.3578    0.0795 H   0  0  0  0  0  0  0  0  0  0  0  0
    1.8155    2.8966    0.0811 H   0  0  0  0  0  0  0  0  0  0  0  0
  1  2  1  0  0  0  0
  1 12  1  0  0  0  0
  1 13  1  0  0  0  0
  1 14  1  0  0  0  0
  2  3  1  0  0  0  0
  2 11  2  0  0  0  0
  3  4  2  0  0  0  0
  3 15  1  0  0  0  0
  4  5  1  0  0  0  0
  4 16  1  0  0  0  0
  5  6  1  0  0  0  0
  5  7  2  0  0  0  0
  6 17  1  0  0  0  0
  6 18  1  0  0  0  0
  6 19  1  0  0  0  0
  7  8  1  0  0  0  0
  7 11  1  0  0  0  0
  8  9  1  0  0  0  0
  8 20  1  0  0  0  0
  9 10  2  0  0  0  0
  9 21  1  0  0  0  0
 10 11  1  0  0  0  0
 10 22  1  0  0  0  0
M  END
