
  xtb     02012214123D
 xtb: 6.4.1 (23d549d)
 22 23  0     0  0            999 V2000
    1.0021   -0.0909   -0.0115 c   0  0  0  0  0  0  0  0  0  0  0  0
    2.4995   -0.0916   -0.0169 c   0  0  0  0  0  0  0  0  0  0  0  0
    3.2368   -1.2549   -0.0594 c   0  0  0  0  0  0  0  0  0  0  0  0
    4.6352   -1.2522   -0.0637 c   0  0  0  0  0  0  0  0  0  0  0  0
    5.3662   -0.0832   -0.0256 c   0  0  0  0  0  0  0  0  0  0  0  0
    6.8659   -0.0622   -0.0289 c   0  0  0  0  0  0  0  0  0  0  0  0
    4.6268    1.1005    0.0172 c   0  0  0  0  0  0  0  0  0  0  0  0
    5.0524    2.3981    0.0604 n   0  0  0  0  0  0  0  0  0  0  0  0
    3.9636    3.2238    0.0921 c   0  0  0  0  0  0  0  0  0  0  0  0
    2.8229    2.4832    0.0703 c   0  0  0  0  0  0  0  0  0  0  0  0
    3.2137    1.1148    0.0222 c   0  0  0  0  0  0  0  0  0  0  0  0
    0.6138   -1.1059   -0.0468 h   0  0  0  0  0  0  0  0  0  0  0  0
    0.6210    0.4600   -0.8709 h   0  0  0  0  0  0  0  0  0  0  0  0
    0.6275    0.3962    0.8883 h   0  0  0  0  0  0  0  0  0  0  0  0
    2.7241   -2.2061   -0.0906 h   0  0  0  0  0  0  0  0  0  0  0  0
    5.1561   -2.1985   -0.0979 h   0  0  0  0  0  0  0  0  0  0  0  0
    7.2612   -1.0739   -0.0668 h   0  0  0  0  0  0  0  0  0  0  0  0
    7.2460    0.4225    0.8713 h   0  0  0  0  0  0  0  0  0  0  0  0
    7.2414    0.4868   -0.8933 h   0  0  0  0  0  0  0  0  0  0  0  0
    6.0120    2.6967    0.0676 h   0  0  0  0  0  0  0  0  0  0  0  0
    4.0873    4.2897    0.1281 h   0  0  0  0  0  0  0  0  0  0  0  0
    1.8199    2.8602    0.0863 h   0  0  0  0  0  0  0  0  0  0  0  0
  1  2  1  0  0  0  0
  2  3  4  0  0  0  0
  3  4  4  0  0  0  0
  4  5  4  0  0  0  0
  5  6  1  0  0  0  0
  5  7  4  0  0  0  0
  7  8  1  0  0  0  0
  8  9  4  0  0  0  0
  9 10  2  0  0  0  0
  2 11  4  0  0  0  0
  7 11  4  0  0  0  0
 10 11  4  0  0  0  0
  1 12  1  0  0  0  0
  1 13  1  0  0  0  0
  1 14  1  0  0  0  0
  3 15  1  0  0  0  0
  4 16  1  0  0  0  0
  6 17  1  0  0  0  0
  6 18  1  0  0  0  0
  6 19  1  0  0  0  0
  8 20  1  0  0  0  0
  9 21  1  0  0  0  0
 10 22  1  0  0  0  0
M  END
