
  xtb     02032211353D
 xtb: 6.4.1 (23d549d)
 26 27  0     0  0            999 V2000
    3.7775    1.5189    0.2779 C   0  0  0  0  0  0  0  0  0  0  0  0
    2.8954    0.7387   -0.3319 C   0  0  0  0  0  0  0  0  0  0  0  0
    1.4548    0.7664   -0.0824 C   0  0  0  0  0  0  0  0  0  0  0  0
    0.8198    1.9678    0.1444 C   0  0  0  0  0  0  0  0  0  0  0  0
   -0.5631    2.0391    0.3006 C   0  0  0  0  0  0  0  0  0  0  0  0
   -1.3554    0.9147    0.2192 C   0  0  0  0  0  0  0  0  0  0  0  0
   -2.8080    1.0929    0.2651 C   0  0  0  0  0  0  0  0  0  0  0  0
   -3.6765    0.5292   -0.5628 C   0  0  0  0  0  0  0  0  0  0  0  0
   -0.7316   -0.3569    0.0748 C   0  0  0  0  0  0  0  0  0  0  0  0
   -1.4639   -1.5608    0.1516 C   0  0  0  0  0  0  0  0  0  0  0  0
   -0.8506   -2.7759    0.0289 C   0  0  0  0  0  0  0  0  0  0  0  0
    0.5347   -2.8468   -0.1638 C   0  0  0  0  0  0  0  0  0  0  0  0
    1.2799   -1.7018   -0.2042 C   0  0  0  0  0  0  0  0  0  0  0  0
    0.6805   -0.4293   -0.0872 C   0  0  0  0  0  0  0  0  0  0  0  0
    4.8276    1.4782    0.0432 H   0  0  0  0  0  0  0  0  0  0  0  0
    3.4878    2.2139    1.0484 H   0  0  0  0  0  0  0  0  0  0  0  0
    3.2367    0.0350   -1.0802 H   0  0  0  0  0  0  0  0  0  0  0  0
    1.3979    2.8801    0.1595 H   0  0  0  0  0  0  0  0  0  0  0  0
   -1.0275    3.0053    0.4413 H   0  0  0  0  0  0  0  0  0  0  0  0
   -3.1583    1.8080    1.0006 H   0  0  0  0  0  0  0  0  0  0  0  0
   -3.3657   -0.1407   -1.3473 H   0  0  0  0  0  0  0  0  0  0  0  0
   -4.7317    0.7372   -0.5012 H   0  0  0  0  0  0  0  0  0  0  0  0
   -2.5253   -1.5118    0.3399 H   0  0  0  0  0  0  0  0  0  0  0  0
   -1.4282   -3.6864    0.0952 H   0  0  0  0  0  0  0  0  0  0  0  0
    1.0130   -3.8111   -0.2556 H   0  0  0  0  0  0  0  0  0  0  0  0
    2.3523   -1.7706   -0.3039 H   0  0  0  0  0  0  0  0  0  0  0  0
  1  2  2  0  0  0  0
  2  3  1  0  0  0  0
  3  4  4  0  0  0  0
  4  5  4  0  0  0  0
  5  6  4  0  0  0  0
  6  7  1  0  0  0  0
  7  8  2  0  0  0  0
  6  9  4  0  0  0  0
  9 10  4  0  0  0  0
 10 11  2  0  0  0  0
 11 12  4  0  0  0  0
 12 13  2  0  0  0  0
  3 14  4  0  0  0  0
  9 14  4  0  0  0  0
 13 14  4  0  0  0  0
  1 15  1  0  0  0  0
  1 16  1  0  0  0  0
  2 17  1  0  0  0  0
  4 18  1  0  0  0  0
  5 19  1  0  0  0  0
  7 20  1  0  0  0  0
  8 21  1  0  0  0  0
  8 22  1  0  0  0  0
 10 23  1  0  0  0  0
 11 24  1  0  0  0  0
 12 25  1  0  0  0  0
 13 26  1  0  0  0  0
M  END
