
  xtb     02012214023D
 xtb: 6.4.1 (23d549d)
 27 27  0     0  0            999 V2000
    6.2992   -2.6722   -2.2917 c   0  0  0  0  0  0  0  0  0  0  0  0
    5.7223   -1.3065   -1.9373 c   0  0  0  0  0  0  0  0  0  0  0  0
    4.3466   -1.3744   -1.2693 c   0  0  0  0  0  0  0  0  0  0  0  0
    4.3892   -1.6428    0.2415 c   0  0  0  0  0  0  0  0  0  0  0  0
    4.9078   -2.9983    0.6102 c   0  0  0  0  0  0  0  0  0  0  0  0
    6.1944   -3.2076    1.1805 c   0  0  0  0  0  0  0  0  0  0  0  0
    6.4815   -4.5066    1.4410 c   0  0  0  0  0  0  0  0  0  0  0  0
    7.7186   -5.0901    2.0249 c   0  0  0  0  0  0  0  0  0  0  0  0
    5.1523   -5.5292    0.9869 s   0  0  0  0  0  0  0  0  0  0  0  0
    4.2184   -4.1624    0.4516 c   0  0  0  0  0  0  0  0  0  0  0  0
    2.8542   -4.3775   -0.1038 c   0  0  0  0  0  0  0  0  0  0  0  0
    7.2444   -2.5552   -2.8181 h   0  0  0  0  0  0  0  0  0  0  0  0
    5.6141   -3.2174   -2.9382 h   0  0  0  0  0  0  0  0  0  0  0  0
    6.4764   -3.2664   -1.4006 h   0  0  0  0  0  0  0  0  0  0  0  0
    5.6309   -0.7229   -2.8572 h   0  0  0  0  0  0  0  0  0  0  0  0
    6.4172   -0.7762   -1.2824 h   0  0  0  0  0  0  0  0  0  0  0  0
    3.7463   -2.1427   -1.7589 h   0  0  0  0  0  0  0  0  0  0  0  0
    3.8407   -0.4163   -1.4158 h   0  0  0  0  0  0  0  0  0  0  0  0
    3.3740   -1.5310    0.6343 h   0  0  0  0  0  0  0  0  0  0  0  0
    5.0143   -0.8849    0.7181 h   0  0  0  0  0  0  0  0  0  0  0  0
    6.8803   -2.4036    1.3853 h   0  0  0  0  0  0  0  0  0  0  0  0
    8.4293   -4.2990    2.2528 h   0  0  0  0  0  0  0  0  0  0  0  0
    8.1820   -5.7887    1.3281 h   0  0  0  0  0  0  0  0  0  0  0  0
    7.4922   -5.6349    2.9413 h   0  0  0  0  0  0  0  0  0  0  0  0
    2.3953   -5.2551    0.3472 h   0  0  0  0  0  0  0  0  0  0  0  0
    2.8939   -4.5368   -1.1829 h   0  0  0  0  0  0  0  0  0  0  0  0
    2.2252   -3.5101    0.0895 h   0  0  0  0  0  0  0  0  0  0  0  0
  1  2  1  0  0  0  0
  2  3  1  0  0  0  0
  3  4  1  0  0  0  0
  4  5  1  0  0  0  0
  5  6  4  0  0  0  0
  6  7  2  0  0  0  0
  7  8  1  0  0  0  0
  7  9  1  0  0  0  0
  5 10  2  0  0  0  0
  9 10  1  0  0  0  0
 10 11  1  0  0  0  0
  1 12  1  0  0  0  0
  1 13  1  0  0  0  0
  1 14  1  0  0  0  0
  2 15  1  0  0  0  0
  2 16  1  0  0  0  0
  3 17  1  0  0  0  0
  3 18  1  0  0  0  0
  4 19  1  0  0  0  0
  4 20  1  0  0  0  0
  6 21  1  0  0  0  0
  8 22  1  0  0  0  0
  8 23  1  0  0  0  0
  8 24  1  0  0  0  0
 11 25  1  0  0  0  0
 11 26  1  0  0  0  0
 11 27  1  0  0  0  0
M  END
