
 OpenBabel02012214083D

 21 21  0  0  0  0  0  0  0  0999 V2000
   -2.4655    1.0673   -0.0317 C   0  0  0  0  0  0  0  0  0  0  0  0
   -1.1730    0.3128   -0.0066 C   0  0  0  0  0  0  0  0  0  0  0  0
   -1.1493   -1.0801    0.0267 C   0  0  0  0  0  0  0  0  0  0  0  0
    0.0750   -1.7422    0.0444 C   0  0  0  0  0  0  0  0  0  0  0  0
    1.2925   -1.0303    0.0252 C   0  0  0  0  0  0  0  0  0  0  0  0
    2.5546   -1.8444   -0.0075 C   0  0  0  0  0  0  0  0  0  0  0  0
    3.6988   -1.4083   -0.5912 N   0  0  0  0  0  0  0  0  0  0  0  0
    2.5333   -2.9822    0.4408 O   0  0  0  0  0  0  0  0  0  0  0  0
    1.2181    0.3972    0.0287 C   0  0  0  0  0  0  0  0  0  0  0  0
    2.3936    1.3261    0.1577 C   0  0  0  0  0  0  0  0  0  0  0  0
   -0.0038    1.0005    0.0021 N   0  0  0  0  0  0  0  0  0  0  0  0
   -3.3394    0.3814   -0.0278 H   0  0  0  0  0  0  0  0  0  0  0  0
   -2.5110    1.6936   -0.9473 H   0  0  0  0  0  0  0  0  0  0  0  0
   -2.5276    1.7242    0.8610 H   0  0  0  0  0  0  0  0  0  0  0  0
   -2.0690   -1.6524    0.0305 H   0  0  0  0  0  0  0  0  0  0  0  0
    0.0665   -2.8253    0.0498 H   0  0  0  0  0  0  0  0  0  0  0  0
    3.7556   -0.5168   -1.0973 H   0  0  0  0  0  0  0  0  0  0  0  0
    4.5312   -2.0164   -0.6098 H   0  0  0  0  0  0  0  0  0  0  0  0
    3.3406    0.8329    0.4285 H   0  0  0  0  0  0  0  0  0  0  0  0
    2.1986    2.0195    1.0028 H   0  0  0  0  0  0  0  0  0  0  0  0
    2.5076    1.9265   -0.7691 H   0  0  0  0  0  0  0  0  0  0  0  0
  1  2  1  0  0  0  0
  1 12  1  0  0  0  0
  1 13  1  0  0  0  0
  1 14  1  0  0  0  0
  2  3  1  0  0  0  0
  2 11  2  0  0  0  0
  3  4  2  0  0  0  0
  3 15  1  0  0  0  0
  4  5  1  0  0  0  0
  4 16  1  0  0  0  0
  5  6  1  0  0  0  0
  5  9  2  0  0  0  0
  6  7  1  0  0  0  0
  6  8  2  0  0  0  0
  7 17  1  0  0  0  0
  7 18  1  0  0  0  0
  9 10  1  0  0  0  0
  9 11  1  0  0  0  0
 10 19  1  0  0  0  0
 10 20  1  0  0  0  0
 10 21  1  0  0  0  0
M  END
