
  xtb     02032211363D
 xtb: 6.4.1 (23d549d)
 21 21  0     0  0            999 V2000
    2.7651    2.5862   -0.1181 C   0  0  0  0  0  0  0  0  0  0  0  0
    2.5447    1.2884    0.0520 C   0  0  0  0  0  0  0  0  0  0  0  0
    1.2502    0.6178    0.0273 C   0  0  0  0  0  0  0  0  0  0  0  0
    0.0377    1.2963    0.0168 C   0  0  0  0  0  0  0  0  0  0  0  0
   -1.1988    0.6563   -0.0053 C   0  0  0  0  0  0  0  0  0  0  0  0
   -2.4765    1.3578   -0.0166 C   0  0  0  0  0  0  0  0  0  0  0  0
   -2.6564    2.6699    0.0741 C   0  0  0  0  0  0  0  0  0  0  0  0
   -1.1912   -0.7419   -0.0193 C   0  0  0  0  0  0  0  0  0  0  0  0
   -2.3470   -1.4293   -0.0433 F   0  0  0  0  0  0  0  0  0  0  0  0
    0.0013   -1.4403   -0.0023 C   0  0  0  0  0  0  0  0  0  0  0  0
    0.0101   -2.7992   -0.0102 F   0  0  0  0  0  0  0  0  0  0  0  0
    1.2313   -0.7891    0.0237 C   0  0  0  0  0  0  0  0  0  0  0  0
    2.3848   -1.4932    0.0385 O   0  0  0  0  0  0  0  0  0  0  0  0
    3.7627    2.9880   -0.0843 H   0  0  0  0  0  0  0  0  0  0  0  0
    1.9777    3.2964   -0.3040 H   0  0  0  0  0  0  0  0  0  0  0  0
    3.3809    0.6223    0.2126 H   0  0  0  0  0  0  0  0  0  0  0  0
    0.0558    2.3724    0.0306 H   0  0  0  0  0  0  0  0  0  0  0  0
   -3.3413    0.7134   -0.1025 H   0  0  0  0  0  0  0  0  0  0  0  0
   -1.8437    3.3688    0.1714 H   0  0  0  0  0  0  0  0  0  0  0  0
   -3.6444    3.0953    0.0571 H   0  0  0  0  0  0  0  0  0  0  0  0
    2.1853   -2.4401    0.0315 H   0  0  0  0  0  0  0  0  0  0  0  0
  1  2  2  0  0  0  0
  2  3  1  0  0  0  0
  3  4  4  0  0  0  0
  4  5  4  0  0  0  0
  5  6  1  0  0  0  0
  6  7  2  0  0  0  0
  5  8  4  0  0  0  0
  8  9  1  0  0  0  0
  8 10  4  0  0  0  0
 10 11  1  0  0  0  0
  3 12  4  0  0  0  0
 10 12  4  0  0  0  0
 12 13  1  0  0  0  0
  1 14  1  0  0  0  0
  1 15  1  0  0  0  0
  2 16  1  0  0  0  0
  4 17  1  0  0  0  0
  6 18  1  0  0  0  0
  7 19  1  0  0  0  0
  7 20  1  0  0  0  0
 13 21  1  0  0  0  0
M  END
