
 OpenBabel08122213053D

 24 24  0  0  0  0  0  0  0  0999 V2000
    1.0510   -0.0995   -0.0223 C   0  0  0  0  0  0  0  0  0  0  0  0
    2.3837    0.0011    0.0601 C   0  0  0  0  0  0  0  0  0  0  0  0
    3.1069    0.7742    1.0807 C   0  0  0  0  0  0  0  0  0  0  0  0
    2.6088    0.9706    2.3706 C   0  0  0  0  0  0  0  0  0  0  0  0
    3.3293    1.7161    3.3092 C   0  0  0  0  0  0  0  0  0  0  0  0
    4.5787    2.2541    2.9832 C   0  0  0  0  0  0  0  0  0  0  0  0
    5.3220    3.0300    3.8392 O   0  0  0  0  0  0  0  0  0  0  0  0
    5.0002    2.9596    5.2231 C   0  0  0  0  0  0  0  0  0  0  0  0
    5.1228    2.0252    1.7018 C   0  0  0  0  0  0  0  0  0  0  0  0
    6.4432    2.5789    1.3425 C   0  0  0  0  0  0  0  0  0  0  0  0
    7.3451    2.0109    0.5325 C   0  0  0  0  0  0  0  0  0  0  0  0
    7.1127    0.8240   -0.0645 F   0  0  0  0  0  0  0  0  0  0  0  0
    8.5227    2.6373    0.3233 F   0  0  0  0  0  0  0  0  0  0  0  0
    4.3673    1.2987    0.7631 C   0  0  0  0  0  0  0  0  0  0  0  0
    0.5948   -0.6809   -0.8164 H   0  0  0  0  0  0  0  0  0  0  0  0
    0.3798    0.3964    0.6712 H   0  0  0  0  0  0  0  0  0  0  0  0
    2.9960   -0.4980   -0.6869 H   0  0  0  0  0  0  0  0  0  0  0  0
    1.6501    0.5508    2.6650 H   0  0  0  0  0  0  0  0  0  0  0  0
    2.8765    1.8653    4.2840 H   0  0  0  0  0  0  0  0  0  0  0  0
    5.7204    3.5811    5.7641 H   0  0  0  0  0  0  0  0  0  0  0  0
    5.0964    1.9335    5.5930 H   0  0  0  0  0  0  0  0  0  0  0  0
    4.0040    3.3643    5.4274 H   0  0  0  0  0  0  0  0  0  0  0  0
    6.7107    3.5170    1.8169 H   0  0  0  0  0  0  0  0  0  0  0  0
    4.7577    1.1482   -0.2420 H   0  0  0  0  0  0  0  0  0  0  0  0
  1  2  2  0  0  0  0
  1 15  1  0  0  0  0
  1 16  1  0  0  0  0
  2  3  1  0  0  0  0
  2 17  1  0  0  0  0
  3  4  1  0  0  0  0
  3 14  2  0  0  0  0
  4  5  2  0  0  0  0
  4 18  1  0  0  0  0
  5  6  1  0  0  0  0
  5 19  1  0  0  0  0
  6  7  1  0  0  0  0
  6  9  2  0  0  0  0
  7  8  1  0  0  0  0
  8 20  1  0  0  0  0
  8 21  1  0  0  0  0
  8 22  1  0  0  0  0
  9 10  1  0  0  0  0
  9 14  1  0  0  0  0
 10 11  2  0  0  0  0
 10 23  1  0  0  0  0
 11 12  1  0  0  0  0
 11 13  1  0  0  0  0
 14 24  1  0  0  0  0
M  END
