
 OpenBabel02012214003D

 18 18  0  0  0  0  0  0  0  0999 V2000
    1.0033    0.0754    0.0942 C   0  0  0  0  0  0  0  0  0  0  0  0
    2.4995    0.0732   -0.0226 C   0  0  0  0  0  0  0  0  0  0  0  0
    3.2211    1.2728   -0.0313 C   0  0  0  0  0  0  0  0  0  0  0  0
    4.6114    1.2544   -0.1474 C   0  0  0  0  0  0  0  0  0  0  0  0
    5.2794    0.0388   -0.2563 C   0  0  0  0  0  0  0  0  0  0  0  0
    6.6154    0.0479   -0.3723 F   0  0  0  0  0  0  0  0  0  0  0  0
    4.5858   -1.1718   -0.2505 C   0  0  0  0  0  0  0  0  0  0  0  0
    5.3034   -2.4804   -0.3735 C   0  0  0  0  0  0  0  0  0  0  0  0
    3.1897   -1.1449   -0.1202 C   0  0  0  0  0  0  0  0  0  0  0  0
    0.5995    1.0928    0.0597 H   0  0  0  0  0  0  0  0  0  0  0  0
    0.6965   -0.3810    1.0404 H   0  0  0  0  0  0  0  0  0  0  0  0
    0.5605   -0.4843   -0.7365 H   0  0  0  0  0  0  0  0  0  0  0  0
    2.7074    2.2282    0.0486 H   0  0  0  0  0  0  0  0  0  0  0  0
    5.1786    2.1795   -0.1565 H   0  0  0  0  0  0  0  0  0  0  0  0
    6.3726   -2.3426   -0.5659 H   0  0  0  0  0  0  0  0  0  0  0  0
    4.8921   -3.0579   -1.2072 H   0  0  0  0  0  0  0  0  0  0  0  0
    5.1970   -3.0598    0.5496 H   0  0  0  0  0  0  0  0  0  0  0  0
    2.6337   -2.0809   -0.1026 H   0  0  0  0  0  0  0  0  0  0  0  0
  1  2  1  0  0  0  0
  1 10  1  0  0  0  0
  1 11  1  0  0  0  0
  1 12  1  0  0  0  0
  2  3  1  0  0  0  0
  2  9  2  0  0  0  0
  3  4  2  0  0  0  0
  3 13  1  0  0  0  0
  4  5  1  0  0  0  0
  4 14  1  0  0  0  0
  5  6  1  0  0  0  0
  5  7  2  0  0  0  0
  7  8  1  0  0  0  0
  7  9  1  0  0  0  0
  8 15  1  0  0  0  0
  8 16  1  0  0  0  0
  8 17  1  0  0  0  0
  9 18  1  0  0  0  0
M  END
