 xtb: 6.5.0 (unknown)
          08112218553D

 23  0  0     0  0            999 V2000
   -4.4820    0.4131    0.1992 C   0  0  0  0  0  0  0  0  0  0  0  0
   -3.3406    0.6920   -0.4114 C   0  0  0  0  0  0  0  0  0  0  0  0
   -2.0760   -0.0039   -0.1395 C   0  0  0  0  0  0  0  0  0  0  0  0
   -2.0987   -1.3930   -0.0229 C   0  0  0  0  0  0  0  0  0  0  0  0
   -0.9369   -2.1057    0.1961 C   0  0  0  0  0  0  0  0  0  0  0  0
    0.2679   -1.4385    0.2978 C   0  0  0  0  0  0  0  0  0  0  0  0
    0.3171   -0.0497    0.1916 C   0  0  0  0  0  0  0  0  0  0  0  0
    1.5907    0.6542    0.3257 C   0  0  0  0  0  0  0  0  0  0  0  0
    2.7845    0.1854    0.0029 C   0  0  0  0  0  0  0  0  0  0  0  0
    3.0786   -0.9918   -0.5377 F   0  0  0  0  0  0  0  0  0  0  0  0
    3.9122    0.8794    0.1638 F   0  0  0  0  0  0  0  0  0  0  0  0
   -0.8626    0.6813   -0.0196 C   0  0  0  0  0  0  0  0  0  0  0  0
   -0.8058    2.1798   -0.0949 C   0  0  0  0  0  0  0  0  0  0  0  0
   -5.3970    0.9260   -0.0438 H   0  0  0  0  0  0  0  0  0  0  0  0
   -4.5415   -0.3268    0.9802 H   0  0  0  0  0  0  0  0  0  0  0  0
   -3.3165    1.4548   -1.1792 H   0  0  0  0  0  0  0  0  0  0  0  0
   -3.0405   -1.9106   -0.1259 H   0  0  0  0  0  0  0  0  0  0  0  0
   -0.9674   -3.1812    0.2838 H   0  0  0  0  0  0  0  0  0  0  0  0
    1.1731   -1.9957    0.4780 H   0  0  0  0  0  0  0  0  0  0  0  0
    1.5807    1.6588    0.7195 H   0  0  0  0  0  0  0  0  0  0  0  0
   -0.1373    2.4998   -0.8933 H   0  0  0  0  0  0  0  0  0  0  0  0
   -0.4339    2.5905    0.8438 H   0  0  0  0  0  0  0  0  0  0  0  0
   -1.7878    2.6055   -0.2701 H   0  0  0  0  0  0  0  0  0  0  0  0
M  END
