
  xtb     02032211353D
 xtb: 6.4.1 (23d549d)
 16 16  0     0  0            999 V2000
   -3.5691    0.5055    0.0061 C   0  0  0  0  0  0  0  0  0  0  0  0
   -2.3370    0.9989   -0.0012 C   0  0  0  0  0  0  0  0  0  0  0  0
   -1.1144    0.2206   -0.0014 C   0  0  0  0  0  0  0  0  0  0  0  0
   -0.9936   -1.1483   -0.0024 C   0  0  0  0  0  0  0  0  0  0  0  0
    0.6490   -1.6233   -0.0023 S   0  0  0  0  0  0  0  0  0  0  0  0
    1.0900    0.0899   -0.0008 C   0  0  0  0  0  0  0  0  0  0  0  0
    2.4748    0.4775    0.0005 C   0  0  0  0  0  0  0  0  0  0  0  0
    2.8728    1.7464    0.0046 C   0  0  0  0  0  0  0  0  0  0  0  0
    0.0735    0.8773   -0.0006 N   0  0  0  0  0  0  0  0  0  0  0  0
   -4.4299    1.1510    0.0057 H   0  0  0  0  0  0  0  0  0  0  0  0
   -3.7667   -0.5529    0.0125 H   0  0  0  0  0  0  0  0  0  0  0  0
   -2.1689    2.0667   -0.0070 H   0  0  0  0  0  0  0  0  0  0  0  0
   -1.7677   -1.8877   -0.0037 H   0  0  0  0  0  0  0  0  0  0  0  0
    3.1851   -0.3379   -0.0018 H   0  0  0  0  0  0  0  0  0  0  0  0
    2.1536    2.5466    0.0069 H   0  0  0  0  0  0  0  0  0  0  0  0
    3.9154    2.0116    0.0056 H   0  0  0  0  0  0  0  0  0  0  0  0
  1  2  2  0  0  0  0
  2  3  1  0  0  0  0
  3  4  2  0  0  0  0
  4  5  1  0  0  0  0
  5  6  1  0  0  0  0
  6  7  1  0  0  0  0
  7  8  2  0  0  0  0
  3  9  4  0  0  0  0
  6  9  2  0  0  0  0
  1 10  1  0  0  0  0
  1 11  1  0  0  0  0
  2 12  1  0  0  0  0
  4 13  1  0  0  0  0
  7 14  1  0  0  0  0
  8 15  1  0  0  0  0
  8 16  1  0  0  0  0
M  END
