
 OpenBabel02032210503D

 23 23  0  0  0  0  0  0  0  0999 V2000
    0.9723   -0.1235    0.0273 C   0  0  0  0  0  0  0  0  0  0  0  0
    2.3035   -0.0007   -0.0480 C   0  0  0  0  0  0  0  0  0  0  0  0
    3.0486    1.2356    0.2299 C   0  0  0  0  0  0  0  0  0  0  0  0
    4.2563    1.4686   -0.4443 C   0  0  0  0  0  0  0  0  0  0  0  0
    5.0286    2.6132   -0.1915 C   0  0  0  0  0  0  0  0  0  0  0  0
    6.3158    2.7640   -0.8850 C   0  0  0  0  0  0  0  0  0  0  0  0
    6.9105    3.9130   -1.2205 C   0  0  0  0  0  0  0  0  0  0  0  0
    6.3410    5.1077   -0.9596 F   0  0  0  0  0  0  0  0  0  0  0  0
    8.1066    3.8721   -1.8456 F   0  0  0  0  0  0  0  0  0  0  0  0
    4.5859    3.5219    0.7778 C   0  0  0  0  0  0  0  0  0  0  0  0
    3.3904    3.3027    1.4817 C   0  0  0  0  0  0  0  0  0  0  0  0
    2.9266    4.2600    2.5505 C   0  0  0  0  0  0  0  0  0  0  0  0
    3.7586    5.3222    2.7337 F   0  0  0  0  0  0  0  0  0  0  0  0
    1.7003    4.7876    2.2817 F   0  0  0  0  0  0  0  0  0  0  0  0
    2.8160    3.6605    3.7692 F   0  0  0  0  0  0  0  0  0  0  0  0
    2.6326    2.1546    1.1998 C   0  0  0  0  0  0  0  0  0  0  0  0
    0.4966   -1.0743   -0.1967 H   0  0  0  0  0  0  0  0  0  0  0  0
    0.3187    0.7008    0.2929 H   0  0  0  0  0  0  0  0  0  0  0  0
    2.8962   -0.8626   -0.3469 H   0  0  0  0  0  0  0  0  0  0  0  0
    4.5960    0.7467   -1.1867 H   0  0  0  0  0  0  0  0  0  0  0  0
    6.8248    1.8412   -1.1492 H   0  0  0  0  0  0  0  0  0  0  0  0
    5.1801    4.4038    1.0140 H   0  0  0  0  0  0  0  0  0  0  0  0
    1.7198    1.9755    1.7668 H   0  0  0  0  0  0  0  0  0  0  0  0
  1  2  2  0  0  0  0
  1 17  1  0  0  0  0
  1 18  1  0  0  0  0
  2  3  1  0  0  0  0
  2 19  1  0  0  0  0
  3  4  1  0  0  0  0
  3 16  2  0  0  0  0
  4  5  2  0  0  0  0
  4 20  1  0  0  0  0
  5  6  1  0  0  0  0
  5 10  1  0  0  0  0
  6  7  2  0  0  0  0
  6 21  1  0  0  0  0
  7  8  1  0  0  0  0
  7  9  1  0  0  0  0
 10 11  2  0  0  0  0
 10 22  1  0  0  0  0
 11 12  1  0  0  0  0
 11 16  1  0  0  0  0
 12 13  1  0  0  0  0
 12 14  1  0  0  0  0
 12 15  1  0  0  0  0
 16 23  1  0  0  0  0
M  END
