
 OpenBabel02032210593D

 18 18  0  0  0  0  0  0  0  0999 V2000
    0.9625   -0.1752    0.2808 C   0  0  0  0  0  0  0  0  0  0  0  0
    2.2641   -0.0467   -0.0113 C   0  0  0  0  0  0  0  0  0  0  0  0
    2.9945    1.2216    0.0385 C   0  0  0  0  0  0  0  0  0  0  0  0
    2.6909    2.2590    0.8984 C   0  0  0  0  0  0  0  0  0  0  0  0
    3.3631    3.4285    0.9524 N   0  0  0  0  0  0  0  0  0  0  0  0
    4.4013    3.5531    0.1080 C   0  0  0  0  0  0  0  0  0  0  0  0
    5.1419    4.8160    0.1039 C   0  0  0  0  0  0  0  0  0  0  0  0
    4.8493    5.8710    0.8810 C   0  0  0  0  0  0  0  0  0  0  0  0
    4.8163    2.6064   -0.7518 N   0  0  0  0  0  0  0  0  0  0  0  0
    4.1004    1.4587   -0.7583 C   0  0  0  0  0  0  0  0  0  0  0  0
    0.4764   -1.1431    0.2178 H   0  0  0  0  0  0  0  0  0  0  0  0
    0.3373    0.6641    0.5710 H   0  0  0  0  0  0  0  0  0  0  0  0
    2.8273   -0.9237   -0.3236 H   0  0  0  0  0  0  0  0  0  0  0  0
    1.8711    2.1890    1.6073 H   0  0  0  0  0  0  0  0  0  0  0  0
    5.9703    4.8631   -0.5924 H   0  0  0  0  0  0  0  0  0  0  0  0
    4.0213    5.8464    1.5833 H   0  0  0  0  0  0  0  0  0  0  0  0
    5.4336    6.7824    0.8273 H   0  0  0  0  0  0  0  0  0  0  0  0
    4.4583    0.7132   -1.4634 H   0  0  0  0  0  0  0  0  0  0  0  0
  1  2  2  0  0  0  0
  1 11  1  0  0  0  0
  1 12  1  0  0  0  0
  2  3  1  0  0  0  0
  2 13  1  0  0  0  0
  3  4  1  0  0  0  0
  3 10  2  0  0  0  0
  4  5  2  0  0  0  0
  4 14  1  0  0  0  0
  5  6  1  0  0  0  0
  6  7  1  0  0  0  0
  6  9  2  0  0  0  0
  7  8  2  0  0  0  0
  7 15  1  0  0  0  0
  8 16  1  0  0  0  0
  8 17  1  0  0  0  0
  9 10  1  0  0  0  0
 10 18  1  0  0  0  0
M  END
