
  xtb     02032211353D
 xtb: 6.4.1 (23d549d)
 23 23  0     0  0            999 V2000
   -4.3739   -0.0396    0.0024 C   0  0  0  0  0  0  0  0  0  0  0  0
   -3.2289    0.6331    0.0009 C   0  0  0  0  0  0  0  0  0  0  0  0
   -1.8878    0.0658   -0.0249 C   0  0  0  0  0  0  0  0  0  0  0  0
   -1.6319   -1.3068   -0.0678 C   0  0  0  0  0  0  0  0  0  0  0  0
   -0.3409   -1.7848   -0.0994 C   0  0  0  0  0  0  0  0  0  0  0  0
    0.7645   -0.9306   -0.0963 C   0  0  0  0  0  0  0  0  0  0  0  0
    2.1252   -1.4565   -0.1231 C   0  0  0  0  0  0  0  0  0  0  0  0
    2.4836   -2.6509    0.3324 C   0  0  0  0  0  0  0  0  0  0  0  0
    0.5161    0.4522   -0.0501 C   0  0  0  0  0  0  0  0  0  0  0  0
    1.6222    1.4573   -0.0580 C   0  0  0  0  0  0  0  0  0  0  0  0
    2.5717    1.4274   -0.7896 O   0  0  0  0  0  0  0  0  0  0  0  0
    1.4763    2.4647    0.8277 O   0  0  0  0  0  0  0  0  0  0  0  0
   -0.7901    0.9249   -0.0087 C   0  0  0  0  0  0  0  0  0  0  0  0
   -5.3207    0.4716    0.0220 H   0  0  0  0  0  0  0  0  0  0  0  0
   -4.4204   -1.1148   -0.0161 H   0  0  0  0  0  0  0  0  0  0  0  0
   -3.2591    1.7161    0.0193 H   0  0  0  0  0  0  0  0  0  0  0  0
   -2.4530   -2.0061   -0.0858 H   0  0  0  0  0  0  0  0  0  0  0  0
   -0.1751   -2.8497   -0.1542 H   0  0  0  0  0  0  0  0  0  0  0  0
    2.8725   -0.7924   -0.5317 H   0  0  0  0  0  0  0  0  0  0  0  0
    1.7856   -3.3365    0.7843 H   0  0  0  0  0  0  0  0  0  0  0  0
    3.5069   -2.9810    0.2854 H   0  0  0  0  0  0  0  0  0  0  0  0
    0.6840    2.3618    1.3721 H   0  0  0  0  0  0  0  0  0  0  0  0
   -0.9699    1.9934   -0.0034 H   0  0  0  0  0  0  0  0  0  0  0  0
  1  2  2  0  0  0  0
  2  3  1  0  0  0  0
  3  4  4  0  0  0  0
  4  5  4  0  0  0  0
  5  6  4  0  0  0  0
  6  7  1  0  0  0  0
  7  8  2  0  0  0  0
  6  9  4  0  0  0  0
  9 10  1  0  0  0  0
 10 11  2  0  0  0  0
 10 12  1  0  0  0  0
  3 13  4  0  0  0  0
  9 13  4  0  0  0  0
  1 14  1  0  0  0  0
  1 15  1  0  0  0  0
  2 16  1  0  0  0  0
  4 17  1  0  0  0  0
  5 18  1  0  0  0  0
  7 19  1  0  0  0  0
  8 20  1  0  0  0  0
  8 21  1  0  0  0  0
 12 22  1  0  0  0  0
 13 23  1  0  0  0  0
M  END
