
  xtb     02032211343D
 xtb: 6.4.1 (23d549d)
 20 20  0     0  0            999 V2000
    4.8048    0.2101   -0.0062 C   0  0  0  0  0  0  0  0  0  0  0  0
    3.7567   -0.6059    0.0012 C   0  0  0  0  0  0  0  0  0  0  0  0
    2.3525   -0.2210    0.0018 C   0  0  0  0  0  0  0  0  0  0  0  0
    1.3759   -1.2203    0.0020 C   0  0  0  0  0  0  0  0  0  0  0  0
    0.0312   -0.9174    0.0017 C   0  0  0  0  0  0  0  0  0  0  0  0
   -0.3944    0.4128    0.0014 C   0  0  0  0  0  0  0  0  0  0  0  0
   -1.7904    0.8131    0.0007 C   0  0  0  0  0  0  0  0  0  0  0  0
   -2.8703    0.0449   -0.0008 C   0  0  0  0  0  0  0  0  0  0  0  0
   -2.9341   -1.2814   -0.0018 F   0  0  0  0  0  0  0  0  0  0  0  0
   -4.1101    0.5343   -0.0016 F   0  0  0  0  0  0  0  0  0  0  0  0
    0.5800    1.4156    0.0019 C   0  0  0  0  0  0  0  0  0  0  0  0
    1.9222    1.1078    0.0020 C   0  0  0  0  0  0  0  0  0  0  0  0
    5.8106   -0.1732   -0.0061 H   0  0  0  0  0  0  0  0  0  0  0  0
    4.7113    1.2824   -0.0130 H   0  0  0  0  0  0  0  0  0  0  0  0
    3.9276   -1.6758    0.0064 H   0  0  0  0  0  0  0  0  0  0  0  0
    1.6829   -2.2566    0.0022 H   0  0  0  0  0  0  0  0  0  0  0  0
   -0.6879   -1.7201    0.0017 H   0  0  0  0  0  0  0  0  0  0  0  0
   -1.9866    1.8760    0.0012 H   0  0  0  0  0  0  0  0  0  0  0  0
    0.2712    2.4512    0.0021 H   0  0  0  0  0  0  0  0  0  0  0  0
    2.6449    1.9086    0.0026 H   0  0  0  0  0  0  0  0  0  0  0  0
  1  2  2  0  0  0  0
  2  3  1  0  0  0  0
  3  4  4  0  0  0  0
  4  5  4  0  0  0  0
  5  6  4  0  0  0  0
  6  7  1  0  0  0  0
  7  8  2  0  0  0  0
  8  9  1  0  0  0  0
  8 10  1  0  0  0  0
  6 11  4  0  0  0  0
  3 12  4  0  0  0  0
 11 12  4  0  0  0  0
  1 13  1  0  0  0  0
  1 14  1  0  0  0  0
  2 15  1  0  0  0  0
  4 16  1  0  0  0  0
  5 17  1  0  0  0  0
  7 18  1  0  0  0  0
 11 19  1  0  0  0  0
 12 20  1  0  0  0  0
M  END
