
  xtb     02032211353D
 xtb: 6.4.1 (23d549d)
 23 23  0     0  0            999 V2000
   -4.6282   -0.2694   -0.0956 C   0  0  0  0  0  0  0  0  0  0  0  0
   -3.4900    0.4150   -0.1048 C   0  0  0  0  0  0  0  0  0  0  0  0
   -2.1435   -0.1388   -0.0652 C   0  0  0  0  0  0  0  0  0  0  0  0
   -1.8741   -1.5079   -0.0093 C   0  0  0  0  0  0  0  0  0  0  0  0
   -0.5793   -1.9758    0.0241 C   0  0  0  0  0  0  0  0  0  0  0  0
    0.5161   -1.1102    0.0039 C   0  0  0  0  0  0  0  0  0  0  0  0
    1.8817   -1.6274    0.0310 C   0  0  0  0  0  0  0  0  0  0  0  0
    2.2449   -2.7380    0.6593 C   0  0  0  0  0  0  0  0  0  0  0  0
    0.2442    0.2642   -0.0549 C   0  0  0  0  0  0  0  0  0  0  0  0
    1.3753    1.2542   -0.0624 C   0  0  0  0  0  0  0  0  0  0  0  0
    2.1163    1.1911   -1.1886 F   0  0  0  0  0  0  0  0  0  0  0  0
    0.9610    2.5269    0.0270 F   0  0  0  0  0  0  0  0  0  0  0  0
    2.2356    1.0753    0.9577 F   0  0  0  0  0  0  0  0  0  0  0  0
   -1.0570    0.7356   -0.0858 C   0  0  0  0  0  0  0  0  0  0  0  0
   -5.5797    0.2325   -0.1270 H   0  0  0  0  0  0  0  0  0  0  0  0
   -4.6652   -1.3444   -0.0571 H   0  0  0  0  0  0  0  0  0  0  0  0
   -3.5285    1.4963   -0.1451 H   0  0  0  0  0  0  0  0  0  0  0  0
   -2.6882   -2.2153    0.0033 H   0  0  0  0  0  0  0  0  0  0  0  0
   -0.3978   -3.0392    0.0453 H   0  0  0  0  0  0  0  0  0  0  0  0
    2.6288   -1.0459   -0.4906 H   0  0  0  0  0  0  0  0  0  0  0  0
    1.5486   -3.3325    1.2268 H   0  0  0  0  0  0  0  0  0  0  0  0
    3.2654   -3.0784    0.6486 H   0  0  0  0  0  0  0  0  0  0  0  0
   -1.2346    1.8002   -0.1248 H   0  0  0  0  0  0  0  0  0  0  0  0
  1  2  2  0  0  0  0
  2  3  1  0  0  0  0
  3  4  4  0  0  0  0
  4  5  4  0  0  0  0
  5  6  4  0  0  0  0
  6  7  1  0  0  0  0
  7  8  2  0  0  0  0
  6  9  4  0  0  0  0
  9 10  1  0  0  0  0
 10 11  1  0  0  0  0
 10 12  1  0  0  0  0
 10 13  1  0  0  0  0
  3 14  4  0  0  0  0
  9 14  4  0  0  0  0
  1 15  1  0  0  0  0
  1 16  1  0  0  0  0
  2 17  1  0  0  0  0
  4 18  1  0  0  0  0
  5 19  1  0  0  0  0
  7 20  1  0  0  0  0
  8 21  1  0  0  0  0
  8 22  1  0  0  0  0
 14 23  1  0  0  0  0
M  END
