
 OpenBabel02012213453D

 18 18  0  0  0  0  0  0  0  0999 V2000
    0.8967   -0.0001    0.0278 C   0  0  0  0  0  0  0  0  0  0  0  0
    2.3976   -0.0335    0.0926 C   0  0  0  0  0  0  0  0  0  0  0  0
    3.1074   -1.2509    0.0836 C   0  0  0  0  0  0  0  0  0  0  0  0
    2.4331   -2.4286    0.0161 F   0  0  0  0  0  0  0  0  0  0  0  0
    4.5150   -1.2486    0.1437 C   0  0  0  0  0  0  0  0  0  0  0  0
    5.3026   -2.5282    0.1329 C   0  0  0  0  0  0  0  0  0  0  0  0
    5.2014   -0.0273    0.2137 C   0  0  0  0  0  0  0  0  0  0  0  0
    4.4977    1.1783    0.2228 C   0  0  0  0  0  0  0  0  0  0  0  0
    3.1033    1.1766    0.1621 C   0  0  0  0  0  0  0  0  0  0  0  0
    0.4567   -1.0178   -0.0183 H   0  0  0  0  0  0  0  0  0  0  0  0
    0.5763    0.5582   -0.8770 H   0  0  0  0  0  0  0  0  0  0  0  0
    0.4965    0.5108    0.9288 H   0  0  0  0  0  0  0  0  0  0  0  0
    4.6480   -3.4223    0.0744 H   0  0  0  0  0  0  0  0  0  0  0  0
    5.9081   -2.6007    1.0607 H   0  0  0  0  0  0  0  0  0  0  0  0
    5.9827   -2.5380   -0.7449 H   0  0  0  0  0  0  0  0  0  0  0  0
    6.2834   -0.0101    0.2605 H   0  0  0  0  0  0  0  0  0  0  0  0
    5.0349    2.1165    0.2771 H   0  0  0  0  0  0  0  0  0  0  0  0
    2.5711    2.1201    0.1694 H   0  0  0  0  0  0  0  0  0  0  0  0
  1  2  1  0  0  0  0
  1 10  1  0  0  0  0
  1 11  1  0  0  0  0
  1 12  1  0  0  0  0
  2  3  1  0  0  0  0
  2  9  2  0  0  0  0
  3  4  1  0  0  0  0
  3  5  2  0  0  0  0
  5  6  1  0  0  0  0
  5  7  1  0  0  0  0
  6 13  1  0  0  0  0
  6 14  1  0  0  0  0
  6 15  1  0  0  0  0
  7  8  2  0  0  0  0
  7 16  1  0  0  0  0
  8  9  1  0  0  0  0
  8 17  1  0  0  0  0
  9 18  1  0  0  0  0
M  END
