
  xtb     02012213453D
 xtb: 6.4.1 (23d549d)
 18 18  0     0  0            999 V2000
    0.9082   -0.0217    0.0278 c   0  0  0  0  0  0  0  0  0  0  0  0
    2.4052   -0.0176    0.0927 c   0  0  0  0  0  0  0  0  0  0  0  0
    3.1377   -1.1977    0.0847 c   0  0  0  0  0  0  0  0  0  0  0  0
    2.4638   -2.3749    0.0164 f   0  0  0  0  0  0  0  0  0  0  0  0
    4.5250   -1.2339    0.1432 c   0  0  0  0  0  0  0  0  0  0  0  0
    5.2782   -2.5293    0.1322 c   0  0  0  0  0  0  0  0  0  0  0  0
    5.1937   -0.0182    0.2126 c   0  0  0  0  0  0  0  0  0  0  0  0
    4.4963    1.1757    0.2225 c   0  0  0  0  0  0  0  0  0  0  0  0
    3.1149    1.1747    0.1631 c   0  0  0  0  0  0  0  0  0  0  0  0
    0.5224   -1.0363   -0.0158 h   0  0  0  0  0  0  0  0  0  0  0  0
    0.5696    0.5197   -0.8547 h   0  0  0  0  0  0  0  0  0  0  0  0
    0.4933    0.4735    0.9047 h   0  0  0  0  0  0  0  0  0  0  0  0
    4.5988   -3.3750    0.0754 h   0  0  0  0  0  0  0  0  0  0  0  0
    5.8781   -2.6220    1.0366 h   0  0  0  0  0  0  0  0  0  0  0  0
    5.9525   -2.5638   -0.7225 h   0  0  0  0  0  0  0  0  0  0  0  0
    6.2727   -0.0174    0.2590 h   0  0  0  0  0  0  0  0  0  0  0  0
    5.0319    2.1115    0.2768 h   0  0  0  0  0  0  0  0  0  0  0  0
    2.5701    2.1071    0.1709 h   0  0  0  0  0  0  0  0  0  0  0  0
  1  2  1  0  0  0  0
  2  3  4  0  0  0  0
  3  4  1  0  0  0  0
  3  5  4  0  0  0  0
  5  6  1  0  0  0  0
  5  7  4  0  0  0  0
  7  8  4  0  0  0  0
  2  9  4  0  0  0  0
  8  9  4  0  0  0  0
  1 10  1  0  0  0  0
  1 11  1  0  0  0  0
  1 12  1  0  0  0  0
  6 13  1  0  0  0  0
  6 14  1  0  0  0  0
  6 15  1  0  0  0  0
  7 16  1  0  0  0  0
  8 17  1  0  0  0  0
  9 18  1  0  0  0  0
M  END
