
  xtb     02032211353D
 xtb: 6.4.1 (23d549d)
 24 24  0     0  0            999 V2000
   -4.5435    0.0623    0.4890 C   0  0  0  0  0  0  0  0  0  0  0  0
   -3.7510   -0.8216   -0.1029 C   0  0  0  0  0  0  0  0  0  0  0  0
   -2.2900   -0.7820   -0.1172 C   0  0  0  0  0  0  0  0  0  0  0  0
   -1.6030   -1.9944   -0.0360 C   0  0  0  0  0  0  0  0  0  0  0  0
   -0.2274   -2.0432    0.0235 C   0  0  0  0  0  0  0  0  0  0  0  0
    0.4890   -0.8546   -0.0183 C   0  0  0  0  0  0  0  0  0  0  0  0
    1.8902   -1.0029    0.0468 O   0  0  0  0  0  0  0  0  0  0  0  0
    2.6738    0.0506    0.0402 C   0  0  0  0  0  0  0  0  0  0  0  0
    2.6051    0.7918   -1.0822 F   0  0  0  0  0  0  0  0  0  0  0  0
    2.4574    0.9151    1.0500 F   0  0  0  0  0  0  0  0  0  0  0  0
    3.9371   -0.3504    0.1499 F   0  0  0  0  0  0  0  0  0  0  0  0
   -0.1572    0.3575   -0.1350 C   0  0  0  0  0  0  0  0  0  0  0  0
   -1.5521    0.4106   -0.1844 C   0  0  0  0  0  0  0  0  0  0  0  0
   -2.2007    1.7063   -0.3801 C   0  0  0  0  0  0  0  0  0  0  0  0
   -1.7692    2.8524    0.1285 C   0  0  0  0  0  0  0  0  0  0  0  0
   -5.6145   -0.0494    0.4786 H   0  0  0  0  0  0  0  0  0  0  0  0
   -4.1546    0.9105    1.0262 H   0  0  0  0  0  0  0  0  0  0  0  0
   -4.1854   -1.6923   -0.5791 H   0  0  0  0  0  0  0  0  0  0  0  0
   -2.1668   -2.9148   -0.0000 H   0  0  0  0  0  0  0  0  0  0  0  0
    0.3053   -2.9765    0.0966 H   0  0  0  0  0  0  0  0  0  0  0  0
    0.3890    1.2835   -0.2137 H   0  0  0  0  0  0  0  0  0  0  0  0
   -3.0927    1.6880   -0.9931 H   0  0  0  0  0  0  0  0  0  0  0  0
   -0.9121    2.9055    0.7791 H   0  0  0  0  0  0  0  0  0  0  0  0
   -2.2750    3.7818   -0.0684 H   0  0  0  0  0  0  0  0  0  0  0  0
  1  2  2  0  0  0  0
  2  3  1  0  0  0  0
  3  4  4  0  0  0  0
  4  5  4  0  0  0  0
  5  6  4  0  0  0  0
  6  7  1  0  0  0  0
  7  8  1  0  0  0  0
  8  9  1  0  0  0  0
  8 10  1  0  0  0  0
  8 11  1  0  0  0  0
  6 12  4  0  0  0  0
  3 13  4  0  0  0  0
 12 13  4  0  0  0  0
 13 14  1  0  0  0  0
 14 15  2  0  0  0  0
  1 16  1  0  0  0  0
  1 17  1  0  0  0  0
  2 18  1  0  0  0  0
  4 19  1  0  0  0  0
  5 20  1  0  0  0  0
 12 21  1  0  0  0  0
 14 22  1  0  0  0  0
 15 23  1  0  0  0  0
 15 24  1  0  0  0  0
M  END
