
 OpenBabel02012213463D

 14 14  0  0  0  0  0  0  0  0999 V2000
    2.5070    0.5347   -0.0003 C   0  0  0  0  0  0  0  0  0  0  0  0
    1.0691    0.1401   -0.0030 C   0  0  0  0  0  0  0  0  0  0  0  0
    0.6311   -1.0986   -0.0055 O   0  0  0  0  0  0  0  0  0  0  0  0
   -0.6715   -1.1315   -0.0074 N   0  0  0  0  0  0  0  0  0  0  0  0
   -1.0988    0.1467   -0.0062 C   0  0  0  0  0  0  0  0  0  0  0  0
   -2.5331    0.5567   -0.0077 C   0  0  0  0  0  0  0  0  0  0  0  0
   -0.0121    0.9916   -0.0033 C   0  0  0  0  0  0  0  0  0  0  0  0
    3.1488   -0.3711   -0.0010 H   0  0  0  0  0  0  0  0  0  0  0  0
    2.7280    1.1351    0.9068 H   0  0  0  0  0  0  0  0  0  0  0  0
    2.7306    1.1385   -0.9045 H   0  0  0  0  0  0  0  0  0  0  0  0
   -3.1883   -0.3398   -0.0097 H   0  0  0  0  0  0  0  0  0  0  0  0
   -2.7470    1.1627   -0.9128 H   0  0  0  0  0  0  0  0  0  0  0  0
   -2.7496    1.1607    0.8980 H   0  0  0  0  0  0  0  0  0  0  0  0
   -0.0086    2.0739   -0.0017 H   0  0  0  0  0  0  0  0  0  0  0  0
  1  2  1  0  0  0  0
  1  8  1  0  0  0  0
  1  9  1  0  0  0  0
  1 10  1  0  0  0  0
  2  3  1  0  0  0  0
  2  7  2  0  0  0  0
  3  4  1  0  0  0  0
  4  5  2  0  0  0  0
  5  6  1  0  0  0  0
  5  7  1  0  0  0  0
  6 11  1  0  0  0  0
  6 12  1  0  0  0  0
  6 13  1  0  0  0  0
  7 14  1  0  0  0  0
M  END
