
  xtb     02012213463D
 xtb: 6.4.1 (23d549d)
 14 14  0     0  0            999 V2000
    2.5386    0.5064   -0.0003 c   0  0  0  0  0  0  0  0  0  0  0  0
    1.0775    0.2453   -0.0028 c   0  0  0  0  0  0  0  0  0  0  0  0
    0.6593   -1.0303   -0.0053 o   0  0  0  0  0  0  0  0  0  0  0  0
   -0.6962   -1.0608   -0.0074 n   0  0  0  0  0  0  0  0  0  0  0  0
   -1.1174    0.1766   -0.0062 c   0  0  0  0  0  0  0  0  0  0  0  0
   -2.5609    0.5183   -0.0078 c   0  0  0  0  0  0  0  0  0  0  0  0
   -0.0127    1.0676   -0.0032 c   0  0  0  0  0  0  0  0  0  0  0  0
    3.0727   -0.4397   -0.0012 h   0  0  0  0  0  0  0  0  0  0  0  0
    2.8196    1.0768    0.8833 h   0  0  0  0  0  0  0  0  0  0  0  0
    2.8221    1.0801   -0.8808 h   0  0  0  0  0  0  0  0  0  0  0  0
   -3.1508   -0.3934   -0.0098 h   0  0  0  0  0  0  0  0  0  0  0  0
   -2.8045    1.1089   -0.8896 h   0  0  0  0  0  0  0  0  0  0  0  0
   -2.8070    1.1069    0.8746 h   0  0  0  0  0  0  0  0  0  0  0  0
   -0.0347    2.1370   -0.0017 h   0  0  0  0  0  0  0  0  0  0  0  0
  1  2  1  0  0  0  0
  2  3  1  0  0  0  0
  3  4  1  0  0  0  0
  4  5  2  0  0  0  0
  5  6  1  0  0  0  0
  2  7  2  0  0  0  0
  5  7  4  0  0  0  0
  1  8  1  0  0  0  0
  1  9  1  0  0  0  0
  1 10  1  0  0  0  0
  6 11  1  0  0  0  0
  6 12  1  0  0  0  0
  6 13  1  0  0  0  0
  7 14  1  0  0  0  0
M  END
