22

C          1.38312       -0.69311       -0.64125
C          2.35810        0.03740       -0.08920
C          3.00260        1.16920       -0.79230
C          2.48490        2.45960       -0.65890
C          3.09390        3.53580       -1.32370
C          2.50510        4.91360       -1.15380
C          4.23950        3.30380       -2.13050
C          4.90840        4.43710       -2.84850
C          5.90353        5.18532       -2.35165
C          4.71800        1.97950       -2.22830
N          4.09800        0.96780       -1.56940
H          0.94199       -1.51354       -0.08451
H          1.01433       -0.48810       -1.64142
H          2.68535       -0.21506        0.91572
H          1.61060        2.62410       -0.03940
H          1.61600        4.90510       -0.48780
H          2.18610        5.31140       -2.14020
H          3.25950        5.59260       -0.70380
H          4.57912        4.69433       -3.84900
H          6.32519        5.03965       -1.36705
H          6.31942        5.98626       -2.95509
H          5.58070        1.72850       -2.82330
22

C          2.71467       -0.34330        1.14243
C          2.35810        0.03740       -0.08920
C          3.00260        1.16920       -0.79230
C          2.48490        2.45960       -0.65890
C          3.09390        3.53580       -1.32370
C          2.50510        4.91360       -1.15380
C          4.23950        3.30380       -2.13050
C          4.90840        4.43710       -2.84850
C          4.61102        4.84708       -4.08966
C          4.71800        1.97950       -2.22830
N          4.09800        0.96780       -1.56940
H          2.21140       -1.18017        1.61574
H          3.50209        0.16494        1.69020
H          1.56314       -0.51020       -0.58806
H          1.61060        2.62410       -0.03940
H          1.61600        4.90510       -0.48780
H          2.18610        5.31140       -2.14020
H          3.25950        5.59260       -0.70380
H          5.69989        4.98370       -2.34813
H          3.84651        4.38982       -4.70193
H          5.15810        5.68005       -4.52031
H          5.58070        1.72850       -2.82330
22

C          2.71467       -0.34330        1.14243
C          2.35810        0.03740       -0.08920
C          3.00260        1.16920       -0.79230
C          2.48490        2.45960       -0.65890
C          3.09390        3.53580       -1.32370
C          2.50510        4.91360       -1.15380
C          4.23950        3.30380       -2.13050
C          4.90840        4.43710       -2.84850
C          5.90353        5.18532       -2.35165
C          4.71800        1.97950       -2.22830
N          4.09800        0.96780       -1.56940
H          2.21140       -1.18017        1.61574
H          3.50209        0.16494        1.69020
H          1.56314       -0.51020       -0.58806
H          1.61060        2.62410       -0.03940
H          1.61600        4.90510       -0.48780
H          2.18610        5.31140       -2.14020
H          3.25950        5.59260       -0.70380
H          4.57912        4.69433       -3.84900
H          6.32519        5.03965       -1.36705
H          6.31942        5.98626       -2.95509
H          5.58070        1.72850       -2.82330
22

C          1.38312       -0.69311       -0.64125
C          2.35810        0.03740       -0.08920
C          3.00260        1.16920       -0.79230
C          2.48490        2.45960       -0.65890
C          3.09390        3.53580       -1.32370
C          2.50510        4.91360       -1.15380
C          4.23950        3.30380       -2.13050
C          4.90840        4.43710       -2.84850
C          4.61102        4.84708       -4.08966
C          4.71800        1.97950       -2.22830
N          4.09800        0.96780       -1.56940
H          0.94199       -1.51354       -0.08451
H          1.01433       -0.48810       -1.64142
H          2.68535       -0.21506        0.91572
H          1.61060        2.62410       -0.03940
H          1.61600        4.90510       -0.48780
H          2.18610        5.31140       -2.14020
H          3.25950        5.59260       -0.70380
H          5.69989        4.98370       -2.34813
H          3.84651        4.38982       -4.70193
H          5.15810        5.68005       -4.52031
H          5.58070        1.72850       -2.82330
22

C          2.71467       -0.34330        1.14243
C          2.35810        0.03740       -0.08920
C          3.00260        1.16920       -0.79230
C          2.48490        2.45960       -0.65890
C          3.09390        3.53580       -1.32370
C          2.50510        4.91360       -1.15380
C          4.23950        3.30380       -2.13050
C          4.90840        4.43710       -2.84850
C          4.29169        5.54284       -3.28895
C          4.71800        1.97950       -2.22830
N          4.09800        0.96780       -1.56940
H          2.21140       -1.18017        1.61574
H          3.50209        0.16494        1.69020
H          1.56314       -0.51020       -0.58806
H          1.61060        2.62410       -0.03940
H          1.61600        4.90510       -0.48780
H          2.18610        5.31140       -2.14020
H          3.25950        5.59260       -0.70380
H          5.97391        4.38259       -3.04164
H          3.23326        5.72476       -3.16616
H          4.86950        6.30648       -3.80041
H          5.58070        1.72850       -2.82330
22

C          1.38312       -0.69311       -0.64125
C          2.35810        0.03740       -0.08920
C          3.00260        1.16920       -0.79230
C          2.48490        2.45960       -0.65890
C          3.09390        3.53580       -1.32370
C          2.50510        4.91360       -1.15380
C          4.23950        3.30380       -2.13050
C          4.90840        4.43710       -2.84850
C          4.93105        5.71016       -2.42922
C          4.71800        1.97950       -2.22830
N          4.09800        0.96780       -1.56940
H          0.94199       -1.51354       -0.08451
H          1.01433       -0.48810       -1.64142
H          2.68535       -0.21506        0.91572
H          1.61060        2.62410       -0.03940
H          1.61600        4.90510       -0.48780
H          2.18610        5.31140       -2.14020
H          3.25950        5.59260       -0.70380
H          5.41951        4.23945       -3.78407
H          4.45938        6.04621       -1.51651
H          5.44397        6.45795       -3.02615
H          5.58070        1.72850       -2.82330
22

C          2.71467       -0.34330        1.14243
C          2.35810        0.03740       -0.08920
C          3.00260        1.16920       -0.79230
C          2.48490        2.45960       -0.65890
C          3.09390        3.53580       -1.32370
C          2.50510        4.91360       -1.15380
C          4.23950        3.30380       -2.13050
C          4.90840        4.43710       -2.84850
C          4.93105        5.71016       -2.42922
C          4.71800        1.97950       -2.22830
N          4.09800        0.96780       -1.56940
H          2.21140       -1.18017        1.61574
H          3.50209        0.16494        1.69020
H          1.56314       -0.51020       -0.58806
H          1.61060        2.62410       -0.03940
H          1.61600        4.90510       -0.48780
H          2.18610        5.31140       -2.14020
H          3.25950        5.59260       -0.70380
H          5.41951        4.23945       -3.78407
H          4.45938        6.04621       -1.51651
H          5.44397        6.45795       -3.02615
H          5.58070        1.72850       -2.82330
22

C          2.71467       -0.34330        1.14243
C          2.35810        0.03740       -0.08920
C          3.00260        1.16920       -0.79230
C          2.48490        2.45960       -0.65890
C          3.09390        3.53580       -1.32370
C          2.50510        4.91360       -1.15380
C          4.23950        3.30380       -2.13050
C          4.90840        4.43710       -2.84850
C          4.51476        5.71778       -2.80500
C          4.71800        1.97950       -2.22830
N          4.09800        0.96780       -1.56940
H          2.21140       -1.18017        1.61574
H          3.50209        0.16494        1.69020
H          1.56314       -0.51020       -0.58806
H          1.61060        2.62410       -0.03940
H          1.61600        4.90510       -0.48780
H          2.18610        5.31140       -2.14020
H          3.25950        5.59260       -0.70380
H          5.78005        4.23205       -3.45986
H          3.66092        6.06059       -2.23766
H          5.06968        6.46434       -3.36475
H          5.58070        1.72850       -2.82330
22

C          1.38312       -0.69311       -0.64125
C          2.35810        0.03740       -0.08920
C          3.00260        1.16920       -0.79230
C          2.48490        2.45960       -0.65890
C          3.09390        3.53580       -1.32370
C          2.50510        4.91360       -1.15380
C          4.23950        3.30380       -2.13050
C          4.90840        4.43710       -2.84850
C          4.29169        5.54284       -3.28895
C          4.71800        1.97950       -2.22830
N          4.09800        0.96780       -1.56940
H          0.94199       -1.51354       -0.08451
H          1.01433       -0.48810       -1.64142
H          2.68535       -0.21506        0.91572
H          1.61060        2.62410       -0.03940
H          1.61600        4.90510       -0.48780
H          2.18610        5.31140       -2.14020
H          3.25950        5.59260       -0.70380
H          5.97391        4.38259       -3.04164
H          3.23326        5.72476       -3.16616
H          4.86950        6.30648       -3.80041
H          5.58070        1.72850       -2.82330
22

C          1.38312       -0.69311       -0.64125
C          2.35810        0.03740       -0.08920
C          3.00260        1.16920       -0.79230
C          2.48490        2.45960       -0.65890
C          3.09390        3.53580       -1.32370
C          2.50510        4.91360       -1.15380
C          4.23950        3.30380       -2.13050
C          4.90840        4.43710       -2.84850
C          4.51476        5.71778       -2.80500
C          4.71800        1.97950       -2.22830
N          4.09800        0.96780       -1.56940
H          0.94199       -1.51354       -0.08451
H          1.01433       -0.48810       -1.64142
H          2.68535       -0.21506        0.91572
H          1.61060        2.62410       -0.03940
H          1.61600        4.90510       -0.48780
H          2.18610        5.31140       -2.14020
H          3.25950        5.59260       -0.70380
H          5.78005        4.23205       -3.45986
H          3.66092        6.06059       -2.23766
H          5.06968        6.46434       -3.36475
H          5.58070        1.72850       -2.82330
