
 OpenBabel02032211203D

 25 25  0  0  0  0  0  0  0  0999 V2000
    1.2250   -0.5227    0.3983 C   0  0  0  0  0  0  0  0  0  0  0  0
    2.2975    0.1858    0.0178 C   0  0  0  0  0  0  0  0  0  0  0  0
    3.0726    1.1202    0.8918 C   0  0  0  0  0  0  0  0  0  0  0  0
    2.7556    1.3289    2.2396 C   0  0  0  0  0  0  0  0  0  0  0  0
    3.4886    2.2158    3.0490 C   0  0  0  0  0  0  0  0  0  0  0  0
    3.0226    2.3669    4.4710 C   0  0  0  0  0  0  0  0  0  0  0  0
    2.3575    1.4787    4.9828 O   0  0  0  0  0  0  0  0  0  0  0  0
    3.1959    3.5046    5.1805 O   0  0  0  0  0  0  0  0  0  0  0  0
    4.6092    2.9045    2.4878 C   0  0  0  0  0  0  0  0  0  0  0  0
    5.4932    3.6421    3.3331 N   0  0  0  0  0  0  0  0  0  0  0  0
    4.9068    2.7365    1.0969 C   0  0  0  0  0  0  0  0  0  0  0  0
    5.9890    3.4558    0.3458 C   0  0  0  0  0  0  0  0  0  0  0  0
    6.4564    4.6812    0.6202 C   0  0  0  0  0  0  0  0  0  0  0  0
    4.1424    1.8307    0.3343 C   0  0  0  0  0  0  0  0  0  0  0  0
    4.4320    1.6539   -0.9839 F   0  0  0  0  0  0  0  0  0  0  0  0
    0.7341   -1.1712   -0.3203 H   0  0  0  0  0  0  0  0  0  0  0  0
    0.8075   -0.4848    1.3949 H   0  0  0  0  0  0  0  0  0  0  0  0
    2.6138    0.0626   -1.0139 H   0  0  0  0  0  0  0  0  0  0  0  0
    1.9204    0.8064    2.6780 H   0  0  0  0  0  0  0  0  0  0  0  0
    3.4871    4.3369    4.7862 H   0  0  0  0  0  0  0  0  0  0  0  0
    5.4143    3.6196    4.3546 H   0  0  0  0  0  0  0  0  0  0  0  0
    6.4116    3.9619    3.0120 H   0  0  0  0  0  0  0  0  0  0  0  0
    6.3850    2.9931   -0.5541 H   0  0  0  0  0  0  0  0  0  0  0  0
    6.0791    5.2922    1.4296 H   0  0  0  0  0  0  0  0  0  0  0  0
    7.2157    5.1185   -0.0204 H   0  0  0  0  0  0  0  0  0  0  0  0
  1  2  2  0  0  0  0
  1 16  1  0  0  0  0
  1 17  1  0  0  0  0
  2  3  1  0  0  0  0
  2 18  1  0  0  0  0
  3  4  1  0  0  0  0
  3 14  2  0  0  0  0
  4  5  2  0  0  0  0
  4 19  1  0  0  0  0
  5  6  1  0  0  0  0
  5  9  1  0  0  0  0
  6  7  2  0  0  0  0
  6  8  1  0  0  0  0
  8 20  1  0  0  0  0
  9 10  1  0  0  0  0
  9 11  2  0  0  0  0
 10 21  1  0  0  0  0
 10 22  1  0  0  0  0
 11 12  1  0  0  0  0
 11 14  1  0  0  0  0
 12 13  2  0  0  0  0
 12 23  1  0  0  0  0
 13 24  1  0  0  0  0
 13 25  1  0  0  0  0
 14 15  1  0  0  0  0
M  END
