
  xtb     02032211343D
 xtb: 6.4.1 (23d549d)
 40 43  0     0  0            999 V2000
    1.2966    4.7860   -0.6708 C   0  0  0  0  0  0  0  0  0  0  0  0
    2.5776    4.2263   -0.5282 O   0  0  0  0  0  0  0  0  0  0  0  0
    2.6862    2.8785   -0.3518 C   0  0  0  0  0  0  0  0  0  0  0  0
    4.0004    2.4042   -0.2095 C   0  0  0  0  0  0  0  0  0  0  0  0
    4.2598    1.0698   -0.0032 C   0  0  0  0  0  0  0  0  0  0  0  0
    1.6083    2.0064   -0.3076 C   0  0  0  0  0  0  0  0  0  0  0  0
    1.8792    0.6563   -0.1265 C   0  0  0  0  0  0  0  0  0  0  0  0
    3.1945    0.1777    0.0457 C   0  0  0  0  0  0  0  0  0  0  0  0
    3.0921   -1.2375    0.2644 C   0  0  0  0  0  0  0  0  0  0  0  0
    4.0276   -2.2421    0.4730 C   0  0  0  0  0  0  0  0  0  0  0  0
    3.5816   -3.5397    0.6282 C   0  0  0  0  0  0  0  0  0  0  0  0
    2.2245   -3.8436    0.5607 C   0  0  0  0  0  0  0  0  0  0  0  0
    1.2745   -2.8606    0.3533 C   0  0  0  0  0  0  0  0  0  0  0  0
    1.7148   -1.5524    0.2241 C   0  0  0  0  0  0  0  0  0  0  0  0
    0.9909   -0.3965   -0.0166 N   0  0  0  0  0  0  0  0  0  0  0  0
   -0.3977   -0.3130   -0.1354 C   0  0  0  0  0  0  0  0  0  0  0  0
   -0.9756    0.3568   -1.2130 C   0  0  0  0  0  0  0  0  0  0  0  0
   -2.3468    0.4376   -1.3234 C   0  0  0  0  0  0  0  0  0  0  0  0
   -3.1856   -0.1508   -0.3726 C   0  0  0  0  0  0  0  0  0  0  0  0
   -4.6211   -0.0308   -0.5584 C   0  0  0  0  0  0  0  0  0  0  0  0
   -5.5955   -0.5128    0.1999 C   0  0  0  0  0  0  0  0  0  0  0  0
   -5.4892   -1.2223    1.3172 F   0  0  0  0  0  0  0  0  0  0  0  0
   -6.8863   -0.3365   -0.0771 F   0  0  0  0  0  0  0  0  0  0  0  0
   -2.5979   -0.8227    0.7022 C   0  0  0  0  0  0  0  0  0  0  0  0
   -1.2261   -0.8992    0.8203 C   0  0  0  0  0  0  0  0  0  0  0  0
    1.4542    5.8561   -0.7960 H   0  0  0  0  0  0  0  0  0  0  0  0
    0.6796    4.6137    0.2175 H   0  0  0  0  0  0  0  0  0  0  0  0
    0.7803    4.3919   -1.5527 H   0  0  0  0  0  0  0  0  0  0  0  0
    4.7985    3.1276   -0.2553 H   0  0  0  0  0  0  0  0  0  0  0  0
    5.2728    0.7205    0.1231 H   0  0  0  0  0  0  0  0  0  0  0  0
    0.5908    2.3523   -0.3917 H   0  0  0  0  0  0  0  0  0  0  0  0
    5.0809   -2.0087    0.5071 H   0  0  0  0  0  0  0  0  0  0  0  0
    4.2927   -4.3352    0.7944 H   0  0  0  0  0  0  0  0  0  0  0  0
    1.9060   -4.8698    0.6690 H   0  0  0  0  0  0  0  0  0  0  0  0
    0.2267   -3.1108    0.2828 H   0  0  0  0  0  0  0  0  0  0  0  0
   -0.3415    0.7919   -1.9706 H   0  0  0  0  0  0  0  0  0  0  0  0
   -2.7819    0.9549   -2.1660 H   0  0  0  0  0  0  0  0  0  0  0  0
   -4.9499    0.5203   -1.4279 H   0  0  0  0  0  0  0  0  0  0  0  0
   -3.2118   -1.2822    1.4589 H   0  0  0  0  0  0  0  0  0  0  0  0
   -0.7844   -1.4010    1.6676 H   0  0  0  0  0  0  0  0  0  0  0  0
  1  2  1  0  0  0  0
  2  3  1  0  0  0  0
  3  4  4  0  0  0  0
  4  5  2  0  0  0  0
  3  6  4  0  0  0  0
  6  7  4  0  0  0  0
  5  8  4  0  0  0  0
  7  8  4  0  0  0  0
  8  9  1  0  0  0  0
  9 10  4  0  0  0  0
 10 11  4  0  0  0  0
 11 12  4  0  0  0  0
 12 13  4  0  0  0  0
  9 14  4  0  0  0  0
 13 14  4  0  0  0  0
  7 15  1  0  0  0  0
 14 15  1  0  0  0  0
 15 16  1  0  0  0  0
 16 17  4  0  0  0  0
 17 18  4  0  0  0  0
 18 19  4  0  0  0  0
 19 20  1  0  0  0  0
 20 21  2  0  0  0  0
 21 22  1  0  0  0  0
 21 23  1  0  0  0  0
 19 24  4  0  0  0  0
 16 25  4  0  0  0  0
 24 25  4  0  0  0  0
  1 26  1  0  0  0  0
  1 27  1  0  0  0  0
  1 28  1  0  0  0  0
  4 29  1  0  0  0  0
  5 30  1  0  0  0  0
  6 31  1  0  0  0  0
 10 32  1  0  0  0  0
 11 33  1  0  0  0  0
 12 34  1  0  0  0  0
 13 35  1  0  0  0  0
 17 36  1  0  0  0  0
 18 37  1  0  0  0  0
 20 38  1  0  0  0  0
 24 39  1  0  0  0  0
 25 40  1  0  0  0  0
M  END
