
 OpenBabel02012213533D

 24 24  0  0  0  0  0  0  0  0999 V2000
    2.5104    1.1592    0.1063 C   0  0  0  0  0  0  0  0  0  0  0  0
    1.2057    0.4208    0.0453 C   0  0  0  0  0  0  0  0  0  0  0  0
   -0.0159    1.1111    0.0955 C   0  0  0  0  0  0  0  0  0  0  0  0
   -1.2304    0.4090    0.0331 C   0  0  0  0  0  0  0  0  0  0  0  0
   -2.5422    1.1357    0.0808 C   0  0  0  0  0  0  0  0  0  0  0  0
   -1.2164   -0.9885   -0.0786 C   0  0  0  0  0  0  0  0  0  0  0  0
   -0.0015   -1.6816   -0.1272 C   0  0  0  0  0  0  0  0  0  0  0  0
    0.0101   -3.4681   -0.2901 S   0  0  0  0  0  0  0  0  0  0  0  0
    0.0651   -4.3546   -1.8710 C   0  0  0  0  0  0  0  0  0  0  0  0
    1.1506   -4.0043    0.5889 O   0  0  0  0  0  0  0  0  0  0  0  0
   -1.1779   -4.0158    0.5159 O   0  0  0  0  0  0  0  0  0  0  0  0
    1.2060   -0.9768   -0.0665 C   0  0  0  0  0  0  0  0  0  0  0  0
    2.3553    2.2556    0.1899 H   0  0  0  0  0  0  0  0  0  0  0  0
    3.0961    0.9566   -0.8152 H   0  0  0  0  0  0  0  0  0  0  0  0
    3.0917    0.8178    0.9886 H   0  0  0  0  0  0  0  0  0  0  0  0
   -0.0212    2.1911    0.1804 H   0  0  0  0  0  0  0  0  0  0  0  0
   -2.3979    2.2337    0.1661 H   0  0  0  0  0  0  0  0  0  0  0  0
   -3.1294    0.7890    0.9571 H   0  0  0  0  0  0  0  0  0  0  0  0
   -3.1167    0.9282   -0.8466 H   0  0  0  0  0  0  0  0  0  0  0  0
   -2.1505   -1.5346   -0.1314 H   0  0  0  0  0  0  0  0  0  0  0  0
    1.0006   -4.0945   -2.4078 H   0  0  0  0  0  0  0  0  0  0  0  0
   -0.8176   -4.0748   -2.4818 H   0  0  0  0  0  0  0  0  0  0  0  0
    0.0452   -5.4479   -1.6840 H   0  0  0  0  0  0  0  0  0  0  0  0
    2.1456   -1.5147   -0.1090 H   0  0  0  0  0  0  0  0  0  0  0  0
  1  2  1  0  0  0  0
  1 13  1  0  0  0  0
  1 14  1  0  0  0  0
  1 15  1  0  0  0  0
  2  3  1  0  0  0  0
  2 12  2  0  0  0  0
  3  4  2  0  0  0  0
  3 16  1  0  0  0  0
  4  5  1  0  0  0  0
  4  6  1  0  0  0  0
  5 17  1  0  0  0  0
  5 18  1  0  0  0  0
  5 19  1  0  0  0  0
  6  7  2  0  0  0  0
  6 20  1  0  0  0  0
  7  8  1  0  0  0  0
  7 12  1  0  0  0  0
  8  9  1  0  0  0  0
  8 10  2  0  0  0  0
  8 11  2  0  0  0  0
  9 21  1  0  0  0  0
  9 22  1  0  0  0  0
  9 23  1  0  0  0  0
 12 24  1  0  0  0  0
M  END
