
  xtb     02032211353D
 xtb: 6.4.1 (23d549d)
 24 24  0     0  0            999 V2000
   -4.2761   -1.6384    0.4744 C   0  0  0  0  0  0  0  0  0  0  0  0
   -3.6885   -0.5969   -0.0988 C   0  0  0  0  0  0  0  0  0  0  0  0
   -2.2531   -0.3167   -0.0414 C   0  0  0  0  0  0  0  0  0  0  0  0
   -1.3354   -1.3613   -0.0335 C   0  0  0  0  0  0  0  0  0  0  0  0
    0.0309   -1.1392   -0.0233 C   0  0  0  0  0  0  0  0  0  0  0  0
    0.4854    0.1672   -0.0237 C   0  0  0  0  0  0  0  0  0  0  0  0
    1.8471    0.5367   -0.0144 O   0  0  0  0  0  0  0  0  0  0  0  0
    2.7852   -0.3794    0.0557 C   0  0  0  0  0  0  0  0  0  0  0  0
    2.7215   -1.1620    1.1495 F   0  0  0  0  0  0  0  0  0  0  0  0
    2.8155   -1.2298   -0.9885 F   0  0  0  0  0  0  0  0  0  0  0  0
    3.9721    0.2199    0.0874 F   0  0  0  0  0  0  0  0  0  0  0  0
   -0.4023    1.2290   -0.0313 C   0  0  0  0  0  0  0  0  0  0  0  0
   -1.7742    1.0074   -0.0407 C   0  0  0  0  0  0  0  0  0  0  0  0
   -2.6970    2.1430   -0.0020 C   0  0  0  0  0  0  0  0  0  0  0  0
   -2.4698    3.3168   -0.5753 C   0  0  0  0  0  0  0  0  0  0  0  0
   -5.3367   -1.8029    0.3930 H   0  0  0  0  0  0  0  0  0  0  0  0
   -3.7269   -2.3544    1.0626 H   0  0  0  0  0  0  0  0  0  0  0  0
   -4.2836    0.1143   -0.6561 H   0  0  0  0  0  0  0  0  0  0  0  0
   -1.6952   -2.3781   -0.0582 H   0  0  0  0  0  0  0  0  0  0  0  0
    0.7045   -1.9808   -0.0200 H   0  0  0  0  0  0  0  0  0  0  0  0
   -0.0072    2.2311   -0.0063 H   0  0  0  0  0  0  0  0  0  0  0  0
   -3.6200    1.9784    0.5377 H   0  0  0  0  0  0  0  0  0  0  0  0
   -1.5782    3.5117   -1.1474 H   0  0  0  0  0  0  0  0  0  0  0  0
   -3.1799    4.1231   -0.5100 H   0  0  0  0  0  0  0  0  0  0  0  0
  1  2  2  0  0  0  0
  2  3  1  0  0  0  0
  3  4  4  0  0  0  0
  4  5  4  0  0  0  0
  5  6  4  0  0  0  0
  6  7  1  0  0  0  0
  7  8  1  0  0  0  0
  8  9  1  0  0  0  0
  8 10  1  0  0  0  0
  8 11  1  0  0  0  0
  6 12  4  0  0  0  0
  3 13  4  0  0  0  0
 12 13  4  0  0  0  0
 13 14  1  0  0  0  0
 14 15  2  0  0  0  0
  1 16  1  0  0  0  0
  1 17  1  0  0  0  0
  2 18  1  0  0  0  0
  4 19  1  0  0  0  0
  5 20  1  0  0  0  0
 12 21  1  0  0  0  0
 14 22  1  0  0  0  0
 15 23  1  0  0  0  0
 15 24  1  0  0  0  0
M  END
