
 OpenBabel02032211033D

 82 82  0  0  0  0  0  0  0  0999 V2000
    2.7942   -0.2196   -0.9313 C   0  0  0  0  0  0  0  0  0  0  0  0
    2.3773    0.2207    0.2640 C   0  0  0  0  0  0  0  0  0  0  0  0
    3.1761    1.0787    1.1942 C   0  0  0  0  0  0  0  0  0  0  0  0
    4.5010    1.4722    0.9031 C   0  0  0  0  0  0  0  0  0  0  0  0
    5.2434    2.2926    1.7683 C   0  0  0  0  0  0  0  0  0  0  0  0
    6.5346    2.5385    1.3969 O   0  0  0  0  0  0  0  0  0  0  0  0
    7.6301    2.6486    2.2371 C   0  0  0  0  0  0  0  0  0  0  0  0
    8.7185    1.6371    1.8776 C   0  0  0  0  0  0  0  0  0  0  0  0
    9.8908    1.8135    2.8536 C   0  0  0  0  0  0  0  0  0  0  0  0
   11.0510    0.8503    2.5882 C   0  0  0  0  0  0  0  0  0  0  0  0
   12.1487    1.0858    3.6353 C   0  0  0  0  0  0  0  0  0  0  0  0
   13.3500    0.1566    3.4429 C   0  0  0  0  0  0  0  0  0  0  0  0
   14.3953    0.4222    4.5350 C   0  0  0  0  0  0  0  0  0  0  0  0
   15.6165   -0.4891    4.3831 C   0  0  0  0  0  0  0  0  0  0  0  0
   16.6356   -0.2132    5.4960 C   0  0  0  0  0  0  0  0  0  0  0  0
   17.8599   -1.1124    5.3609 C   0  0  0  0  0  0  0  0  0  0  0  0
    4.6267    2.7682    2.9642 C   0  0  0  0  0  0  0  0  0  0  0  0
    5.1898    3.7465    3.9440 C   0  0  0  0  0  0  0  0  0  0  0  0
    6.0246    4.7423    3.6319 C   0  0  0  0  0  0  0  0  0  0  0  0
    3.3300    2.3385    3.2655 C   0  0  0  0  0  0  0  0  0  0  0  0
    2.5895    1.5085    2.4015 C   0  0  0  0  0  0  0  0  0  0  0  0
    1.3038    1.1518    2.7016 O   0  0  0  0  0  0  0  0  0  0  0  0
    0.6322    1.5806    3.8326 C   0  0  0  0  0  0  0  0  0  0  0  0
   -0.8329    1.1433    3.8476 C   0  0  0  0  0  0  0  0  0  0  0  0
   -1.4947    1.7550    5.0916 C   0  0  0  0  0  0  0  0  0  0  0  0
   -3.0017    1.5003    5.1835 C   0  0  0  0  0  0  0  0  0  0  0  0
   -3.5528    2.2501    6.4056 C   0  0  0  0  0  0  0  0  0  0  0  0
   -5.0724    2.1299    6.5439 C   0  0  0  0  0  0  0  0  0  0  0  0
   -5.5486    2.9701    7.7376 C   0  0  0  0  0  0  0  0  0  0  0  0
   -7.0701    2.9218    7.8991 C   0  0  0  0  0  0  0  0  0  0  0  0
   -7.5115    3.8015    9.0759 C   0  0  0  0  0  0  0  0  0  0  0  0
   -9.0267    3.7785    9.2490 C   0  0  0  0  0  0  0  0  0  0  0  0
    2.1313   -0.8324   -1.5342 H   0  0  0  0  0  0  0  0  0  0  0  0
    3.7680    0.0073   -1.3431 H   0  0  0  0  0  0  0  0  0  0  0  0
    1.3730   -0.0689    0.5604 H   0  0  0  0  0  0  0  0  0  0  0  0
    4.9924    1.1392    0.0025 H   0  0  0  0  0  0  0  0  0  0  0  0
    7.3433    2.4621    3.2938 H   0  0  0  0  0  0  0  0  0  0  0  0
    8.0706    3.6623    2.1302 H   0  0  0  0  0  0  0  0  0  0  0  0
    9.0602    1.8104    0.8340 H   0  0  0  0  0  0  0  0  0  0  0  0
    8.3115    0.6055    1.9602 H   0  0  0  0  0  0  0  0  0  0  0  0
    9.5188    1.6450    3.8891 H   0  0  0  0  0  0  0  0  0  0  0  0
   10.2707    2.8573    2.7799 H   0  0  0  0  0  0  0  0  0  0  0  0
   11.4567    1.0258    1.5678 H   0  0  0  0  0  0  0  0  0  0  0  0
   10.6885   -0.1986    2.6590 H   0  0  0  0  0  0  0  0  0  0  0  0
   11.7206    0.9139    4.6482 H   0  0  0  0  0  0  0  0  0  0  0  0
   12.4951    2.1415    3.5709 H   0  0  0  0  0  0  0  0  0  0  0  0
   13.7999    0.3350    2.4416 H   0  0  0  0  0  0  0  0  0  0  0  0
   13.0128   -0.9014    3.5041 H   0  0  0  0  0  0  0  0  0  0  0  0
   13.9323    0.2451    5.5314 H   0  0  0  0  0  0  0  0  0  0  0  0
   14.7236    1.4840    4.4789 H   0  0  0  0  0  0  0  0  0  0  0  0
   16.0902   -0.3074    3.3932 H   0  0  0  0  0  0  0  0  0  0  0  0
   15.2918   -1.5517    4.4371 H   0  0  0  0  0  0  0  0  0  0  0  0
   16.1648   -0.3963    6.4868 H   0  0  0  0  0  0  0  0  0  0  0  0
   16.9634    0.8484    5.4488 H   0  0  0  0  0  0  0  0  0  0  0  0
   17.5626   -2.1806    5.4274 H   0  0  0  0  0  0  0  0  0  0  0  0
   18.5754   -0.8903    6.1805 H   0  0  0  0  0  0  0  0  0  0  0  0
   18.3647   -0.9319    4.3882 H   0  0  0  0  0  0  0  0  0  0  0  0
    4.8295    3.7190    4.9699 H   0  0  0  0  0  0  0  0  0  0  0  0
    6.3555    4.9119    2.6179 H   0  0  0  0  0  0  0  0  0  0  0  0
    6.3477    5.4341    4.4035 H   0  0  0  0  0  0  0  0  0  0  0  0
    2.8807    2.7001    4.1806 H   0  0  0  0  0  0  0  0  0  0  0  0
    0.6445    2.6941    3.8456 H   0  0  0  0  0  0  0  0  0  0  0  0
    1.1451    1.1908    4.7403 H   0  0  0  0  0  0  0  0  0  0  0  0
   -0.9110    0.0346    3.8654 H   0  0  0  0  0  0  0  0  0  0  0  0
   -1.3341    1.5294    2.9332 H   0  0  0  0  0  0  0  0  0  0  0  0
   -1.3411    2.8572    5.0550 H   0  0  0  0  0  0  0  0  0  0  0  0
   -0.9973    1.3605    6.0058 H   0  0  0  0  0  0  0  0  0  0  0  0
   -3.2050    0.4108    5.2703 H   0  0  0  0  0  0  0  0  0  0  0  0
   -3.4934    1.8896    4.2650 H   0  0  0  0  0  0  0  0  0  0  0  0
   -3.2999    3.3293    6.2991 H   0  0  0  0  0  0  0  0  0  0  0  0
   -3.0662    1.8626    7.3284 H   0  0  0  0  0  0  0  0  0  0  0  0
   -5.3550    1.0643    6.6881 H   0  0  0  0  0  0  0  0  0  0  0  0
   -5.5548    2.5097    5.6162 H   0  0  0  0  0  0  0  0  0  0  0  0
   -5.2410    4.0276    7.5793 H   0  0  0  0  0  0  0  0  0  0  0  0
   -5.0672    2.5954    8.6686 H   0  0  0  0  0  0  0  0  0  0  0  0
   -7.3906    1.8716    8.0764 H   0  0  0  0  0  0  0  0  0  0  0  0
   -7.5499    3.2923    6.9663 H   0  0  0  0  0  0  0  0  0  0  0  0
   -7.1902    4.8517    8.8979 H   0  0  0  0  0  0  0  0  0  0  0  0
   -7.0366    3.4392   10.0141 H   0  0  0  0  0  0  0  0  0  0  0  0
   -9.5243    4.1592    8.3321 H   0  0  0  0  0  0  0  0  0  0  0  0
   -9.3118    4.4265   10.1040 H   0  0  0  0  0  0  0  0  0  0  0  0
   -9.3746    2.7437    9.4530 H   0  0  0  0  0  0  0  0  0  0  0  0
  1  2  2  0  0  0  0
  1 33  1  0  0  0  0
  1 34  1  0  0  0  0
  2  3  1  0  0  0  0
  2 35  1  0  0  0  0
  3  4  1  0  0  0  0
  3 21  2  0  0  0  0
  4  5  2  0  0  0  0
  4 36  1  0  0  0  0
  5  6  1  0  0  0  0
  5 17  1  0  0  0  0
  6  7  1  0  0  0  0
  7  8  1  0  0  0  0
  7 37  1  0  0  0  0
  7 38  1  0  0  0  0
  8  9  1  0  0  0  0
  8 39  1  0  0  0  0
  8 40  1  0  0  0  0
  9 10  1  0  0  0  0
  9 41  1  0  0  0  0
  9 42  1  0  0  0  0
 10 11  1  0  0  0  0
 10 43  1  0  0  0  0
 10 44  1  0  0  0  0
 11 12  1  0  0  0  0
 11 45  1  0  0  0  0
 11 46  1  0  0  0  0
 12 13  1  0  0  0  0
 12 47  1  0  0  0  0
 12 48  1  0  0  0  0
 13 14  1  0  0  0  0
 13 49  1  0  0  0  0
 13 50  1  0  0  0  0
 14 15  1  0  0  0  0
 14 51  1  0  0  0  0
 14 52  1  0  0  0  0
 15 16  1  0  0  0  0
 15 53  1  0  0  0  0
 15 54  1  0  0  0  0
 16 55  1  0  0  0  0
 16 56  1  0  0  0  0
 16 57  1  0  0  0  0
 17 18  1  0  0  0  0
 17 20  2  0  0  0  0
 18 19  2  0  0  0  0
 18 58  1  0  0  0  0
 19 59  1  0  0  0  0
 19 60  1  0  0  0  0
 20 21  1  0  0  0  0
 20 61  1  0  0  0  0
 21 22  1  0  0  0  0
 22 23  1  0  0  0  0
 23 24  1  0  0  0  0
 23 62  1  0  0  0  0
 23 63  1  0  0  0  0
 24 25  1  0  0  0  0
 24 64  1  0  0  0  0
 24 65  1  0  0  0  0
 25 26  1  0  0  0  0
 25 66  1  0  0  0  0
 25 67  1  0  0  0  0
 26 27  1  0  0  0  0
 26 68  1  0  0  0  0
 26 69  1  0  0  0  0
 27 28  1  0  0  0  0
 27 70  1  0  0  0  0
 27 71  1  0  0  0  0
 28 29  1  0  0  0  0
 28 72  1  0  0  0  0
 28 73  1  0  0  0  0
 29 30  1  0  0  0  0
 29 74  1  0  0  0  0
 29 75  1  0  0  0  0
 30 31  1  0  0  0  0
 30 76  1  0  0  0  0
 30 77  1  0  0  0  0
 31 32  1  0  0  0  0
 31 78  1  0  0  0  0
 31 79  1  0  0  0  0
 32 80  1  0  0  0  0
 32 81  1  0  0  0  0
 32 82  1  0  0  0  0
M  END
