 xtb: 6.5.0 (unknown)
          08122213093D

 23  0  0     0  0            999 V2000
   -4.7707    0.0706   -0.1697 C   0  0  0  0  0  0  0  0  0  0  0  0
   -3.7438   -0.7527    0.0082 C   0  0  0  0  0  0  0  0  0  0  0  0
   -2.3329   -0.3946    0.0503 C   0  0  0  0  0  0  0  0  0  0  0  0
   -1.3823   -1.4015    0.2247 C   0  0  0  0  0  0  0  0  0  0  0  0
   -0.0378   -1.1055    0.2694 C   0  0  0  0  0  0  0  0  0  0  0  0
    0.4154    0.2087    0.1425 C   0  0  0  0  0  0  0  0  0  0  0  0
    1.8334    0.5330    0.2070 C   0  0  0  0  0  0  0  0  0  0  0  0
    2.8564   -0.2797   -0.0090 C   0  0  0  0  0  0  0  0  0  0  0  0
    2.8287   -1.5608   -0.3592 F   0  0  0  0  0  0  0  0  0  0  0  0
    4.1284    0.1122    0.0838 F   0  0  0  0  0  0  0  0  0  0  0  0
   -0.5289    1.2362   -0.0295 C   0  0  0  0  0  0  0  0  0  0  0  0
   -0.1059    2.6674   -0.1822 C   0  0  0  0  0  0  0  0  0  0  0  0
   -1.8739    0.9169   -0.0738 C   0  0  0  0  0  0  0  0  0  0  0  0
   -5.7830   -0.2951   -0.1858 H   0  0  0  0  0  0  0  0  0  0  0  0
   -4.6536    1.1318   -0.3069 H   0  0  0  0  0  0  0  0  0  0  0  0
   -3.9393   -1.8105    0.1371 H   0  0  0  0  0  0  0  0  0  0  0  0
   -1.7053   -2.4273    0.3284 H   0  0  0  0  0  0  0  0  0  0  0  0
    0.6704   -1.9044    0.4194 H   0  0  0  0  0  0  0  0  0  0  0  0
    2.1053    1.5485    0.4507 H   0  0  0  0  0  0  0  0  0  0  0  0
    0.3767    3.0274    0.7264 H   0  0  0  0  0  0  0  0  0  0  0  0
   -0.9693    3.2982   -0.3775 H   0  0  0  0  0  0  0  0  0  0  0  0
    0.5948    2.7794   -1.0080 H   0  0  0  0  0  0  0  0  0  0  0  0
   -2.5874    1.7154   -0.2093 H   0  0  0  0  0  0  0  0  0  0  0  0
M  END
