
 OpenBabel02012213463D

 22 23  0  0  0  0  0  0  0  0999 V2000
    2.2849   -0.1516   -0.0004 C   0  0  0  0  0  0  0  0  0  0  0  0
    0.8002   -0.2838   -0.0107 C   0  0  0  0  0  0  0  0  0  0  0  0
   -0.1993    1.1009   -0.0248 S   0  0  0  0  0  0  0  0  0  0  0  0
   -1.6422    0.1679    0.0210 C   0  0  0  0  0  0  0  0  0  0  0  0
   -2.9453    0.7923    0.0803 C   0  0  0  0  0  0  0  0  0  0  0  0
   -4.2831    0.0090    0.8230 S   0  0  0  0  0  0  0  0  0  0  0  0
   -5.3233    1.3368    0.5515 C   0  0  0  0  0  0  0  0  0  0  0  0
   -6.7346    1.3075    1.0284 C   0  0  0  0  0  0  0  0  0  0  0  0
   -4.6793    2.3515   -0.1224 C   0  0  0  0  0  0  0  0  0  0  0  0
   -3.3146    2.0390   -0.3926 C   0  0  0  0  0  0  0  0  0  0  0  0
   -1.3460   -1.1835    0.0112 C   0  0  0  0  0  0  0  0  0  0  0  0
    0.0558   -1.4428   -0.0069 C   0  0  0  0  0  0  0  0  0  0  0  0
    2.6138    0.8922   -0.0138 H   0  0  0  0  0  0  0  0  0  0  0  0
    2.7150   -0.6521   -0.8743 H   0  0  0  0  0  0  0  0  0  0  0  0
    2.6964   -0.6215    0.8995 H   0  0  0  0  0  0  0  0  0  0  0  0
   -6.9893    0.3683    1.5299 H   0  0  0  0  0  0  0  0  0  0  0  0
   -7.4207    1.4363    0.1852 H   0  0  0  0  0  0  0  0  0  0  0  0
   -6.9073    2.1241    1.7376 H   0  0  0  0  0  0  0  0  0  0  0  0
   -5.1587    3.2823   -0.4017 H   0  0  0  0  0  0  0  0  0  0  0  0
   -2.6375    2.7090   -0.9081 H   0  0  0  0  0  0  0  0  0  0  0  0
   -2.0991   -1.9622    0.0231 H   0  0  0  0  0  0  0  0  0  0  0  0
    0.4924   -2.4349   -0.0057 H   0  0  0  0  0  0  0  0  0  0  0  0
  1  2  1  0  0  0  0
  1 13  1  0  0  0  0
  1 14  1  0  0  0  0
  1 15  1  0  0  0  0
  2  3  1  0  0  0  0
  2 12  2  0  0  0  0
  3  4  1  0  0  0  0
  4  5  1  0  0  0  0
  4 11  2  0  0  0  0
  5  6  1  0  0  0  0
  5 10  2  0  0  0  0
  6  7  1  0  0  0  0
  7  8  1  0  0  0  0
  7  9  2  0  0  0  0
  8 16  1  0  0  0  0
  8 17  1  0  0  0  0
  8 18  1  0  0  0  0
  9 10  1  0  0  0  0
  9 19  1  0  0  0  0
 10 20  1  0  0  0  0
 11 12  1  0  0  0  0
 11 21  1  0  0  0  0
 12 22  1  0  0  0  0
M  END
