
  xtb     02032211353D
 xtb: 6.4.1 (23d549d)
 22 22  0     0  0            999 V2000
   -3.8520    1.0066    0.0782 C   0  0  0  0  0  0  0  0  0  0  0  0
   -3.0020   -0.0135    0.0581 C   0  0  0  0  0  0  0  0  0  0  0  0
   -1.5483    0.0622    0.0063 C   0  0  0  0  0  0  0  0  0  0  0  0
   -0.8453    1.2690   -0.0384 C   0  0  0  0  0  0  0  0  0  0  0  0
    0.5301    1.2685   -0.0926 C   0  0  0  0  0  0  0  0  0  0  0  0
    1.2731    0.0879   -0.1022 C   0  0  0  0  0  0  0  0  0  0  0  0
    2.7283    0.1292   -0.1908 C   0  0  0  0  0  0  0  0  0  0  0  0
    3.4993    1.0954    0.2928 C   0  0  0  0  0  0  0  0  0  0  0  0
    0.5746   -1.1349   -0.0540 C   0  0  0  0  0  0  0  0  0  0  0  0
    1.2335   -2.3429    0.0440 N   0  0  0  0  0  0  0  0  0  0  0  0
   -0.8169   -1.1205   -0.0053 C   0  0  0  0  0  0  0  0  0  0  0  0
   -4.9162    0.8479    0.1189 H   0  0  0  0  0  0  0  0  0  0  0  0
   -3.5307    2.0336    0.0563 H   0  0  0  0  0  0  0  0  0  0  0  0
   -3.3982   -1.0221    0.0837 H   0  0  0  0  0  0  0  0  0  0  0  0
   -1.3759    2.2076   -0.0399 H   0  0  0  0  0  0  0  0  0  0  0  0
    1.0575    2.2088   -0.1541 H   0  0  0  0  0  0  0  0  0  0  0  0
    3.2028   -0.7006   -0.7040 H   0  0  0  0  0  0  0  0  0  0  0  0
    3.0949    1.9310    0.8382 H   0  0  0  0  0  0  0  0  0  0  0  0
    4.5692    1.0771    0.1743 H   0  0  0  0  0  0  0  0  0  0  0  0
    2.1903   -2.3752   -0.2654 H   0  0  0  0  0  0  0  0  0  0  0  0
    0.6906   -3.1609   -0.1799 H   0  0  0  0  0  0  0  0  0  0  0  0
   -1.3396   -2.0676    0.0306 H   0  0  0  0  0  0  0  0  0  0  0  0
  1  2  2  0  0  0  0
  2  3  1  0  0  0  0
  3  4  4  0  0  0  0
  4  5  4  0  0  0  0
  5  6  4  0  0  0  0
  6  7  1  0  0  0  0
  7  8  2  0  0  0  0
  6  9  4  0  0  0  0
  9 10  1  0  0  0  0
  3 11  4  0  0  0  0
  9 11  4  0  0  0  0
  1 12  1  0  0  0  0
  1 13  1  0  0  0  0
  2 14  1  0  0  0  0
  4 15  1  0  0  0  0
  5 16  1  0  0  0  0
  7 17  1  0  0  0  0
  8 18  1  0  0  0  0
  8 19  1  0  0  0  0
 10 20  1  0  0  0  0
 10 21  1  0  0  0  0
 11 22  1  0  0  0  0
M  END
