
  xtb     02032211353D
 xtb: 6.4.1 (23d549d)
 20 20  0     0  0            999 V2000
   -3.0350    1.6566   -0.0946 C   0  0  0  0  0  0  0  0  0  0  0  0
   -2.6712    0.3886    0.0515 C   0  0  0  0  0  0  0  0  0  0  0  0
   -1.3099   -0.1359    0.0338 C   0  0  0  0  0  0  0  0  0  0  0  0
   -1.1198   -1.5182   -0.0066 C   0  0  0  0  0  0  0  0  0  0  0  0
    0.1549   -2.0530   -0.0294 C   0  0  0  0  0  0  0  0  0  0  0  0
    1.2620   -1.2268   -0.0091 C   0  0  0  0  0  0  0  0  0  0  0  0
    1.1063    0.1598    0.0369 C   0  0  0  0  0  0  0  0  0  0  0  0
    2.2360    1.0828    0.0651 C   0  0  0  0  0  0  0  0  0  0  0  0
    3.5176    0.7743   -0.0905 C   0  0  0  0  0  0  0  0  0  0  0  0
   -0.1843    0.6830    0.0620 C   0  0  0  0  0  0  0  0  0  0  0  0
   -4.0712    1.9479   -0.0728 H   0  0  0  0  0  0  0  0  0  0  0  0
   -2.3270    2.4529   -0.2481 H   0  0  0  0  0  0  0  0  0  0  0  0
   -3.4393   -0.3642    0.1846 H   0  0  0  0  0  0  0  0  0  0  0  0
   -1.9792   -2.1736   -0.0230 H   0  0  0  0  0  0  0  0  0  0  0  0
    0.2862   -3.1252   -0.0602 H   0  0  0  0  0  0  0  0  0  0  0  0
    2.2495   -1.6607   -0.0182 H   0  0  0  0  0  0  0  0  0  0  0  0
    1.9638    2.1203    0.2197 H   0  0  0  0  0  0  0  0  0  0  0  0
    3.8595   -0.2321   -0.2610 H   0  0  0  0  0  0  0  0  0  0  0  0
    4.2832    1.5306   -0.0576 H   0  0  0  0  0  0  0  0  0  0  0  0
   -0.3073    1.7549    0.1100 H   0  0  0  0  0  0  0  0  0  0  0  0
  1  2  2  0  0  0  0
  2  3  1  0  0  0  0
  3  4  4  0  0  0  0
  4  5  4  0  0  0  0
  5  6  4  0  0  0  0
  6  7  4  0  0  0  0
  7  8  1  0  0  0  0
  8  9  2  0  0  0  0
  3 10  4  0  0  0  0
  7 10  4  0  0  0  0
  1 11  1  0  0  0  0
  1 12  1  0  0  0  0
  2 13  1  0  0  0  0
  4 14  1  0  0  0  0
  5 15  1  0  0  0  0
  6 16  1  0  0  0  0
  8 17  1  0  0  0  0
  9 18  1  0  0  0  0
  9 19  1  0  0  0  0
 10 20  1  0  0  0  0
M  END
