
  xtb     02032211083D
 xtb: 6.4.1 (23d549d)
 26 26  0     0  0            999 V2000
    2.0337    0.8218    1.0487 c   0  0  0  0  0  0  0  0  0  0  0  0
    2.0333   -0.3852    0.4955 c   0  0  0  0  0  0  0  0  0  0  0  0
    3.0019   -1.4482    0.7311 c   0  0  0  0  0  0  0  0  0  0  0  0
    4.1907   -1.2554    1.4346 c   0  0  0  0  0  0  0  0  0  0  0  0
    5.0615   -2.3057    1.6274 c   0  0  0  0  0  0  0  0  0  0  0  0
    4.7800   -3.5848    1.1504 c   0  0  0  0  0  0  0  0  0  0  0  0
    5.7576   -4.6494    1.4308 c   0  0  0  0  0  0  0  0  0  0  0  0
    5.5095   -5.7374    2.1406 c   0  0  0  0  0  0  0  0  0  0  0  0
    3.6018   -3.7925    0.4267 c   0  0  0  0  0  0  0  0  0  0  0  0
    3.2892   -5.1127   -0.2235 c   0  0  0  0  0  0  0  0  0  0  0  0
    4.0333   -5.2330   -1.5547 c   0  0  0  0  0  0  0  0  0  0  0  0
    2.7452   -2.7217    0.2250 c   0  0  0  0  0  0  0  0  0  0  0  0
    1.2694    1.5447    0.8184 h   0  0  0  0  0  0  0  0  0  0  0  0
    2.7838    1.1384    1.7536 h   0  0  0  0  0  0  0  0  0  0  0  0
    1.2386   -0.6452   -0.1942 h   0  0  0  0  0  0  0  0  0  0  0  0
    4.4418   -0.2798    1.8210 h   0  0  0  0  0  0  0  0  0  0  0  0
    5.9813   -2.1454    2.1730 h   0  0  0  0  0  0  0  0  0  0  0  0
    6.7599   -4.4620    1.0619 h   0  0  0  0  0  0  0  0  0  0  0  0
    4.5366   -5.9330    2.5615 h   0  0  0  0  0  0  0  0  0  0  0  0
    6.2731   -6.4695    2.3441 h   0  0  0  0  0  0  0  0  0  0  0  0
    2.2147   -5.1835   -0.4034 h   0  0  0  0  0  0  0  0  0  0  0  0
    3.5824   -5.9401    0.4211 h   0  0  0  0  0  0  0  0  0  0  0  0
    3.7681   -4.4095   -2.2145 h   0  0  0  0  0  0  0  0  0  0  0  0
    3.7817   -6.1691   -2.0481 h   0  0  0  0  0  0  0  0  0  0  0  0
    5.1078   -5.2072   -1.3876 h   0  0  0  0  0  0  0  0  0  0  0  0
    1.8379   -2.8830   -0.3423 h   0  0  0  0  0  0  0  0  0  0  0  0
  1  2  2  0  0  0  0
  2  3  1  0  0  0  0
  3  4  4  0  0  0  0
  4  5  4  0  0  0  0
  5  6  4  0  0  0  0
  6  7  1  0  0  0  0
  7  8  2  0  0  0  0
  6  9  4  0  0  0  0
  9 10  1  0  0  0  0
 10 11  1  0  0  0  0
  3 12  4  0  0  0  0
  9 12  4  0  0  0  0
  1 13  1  0  0  0  0
  1 14  1  0  0  0  0
  2 15  1  0  0  0  0
  4 16  1  0  0  0  0
  5 17  1  0  0  0  0
  7 18  1  0  0  0  0
  8 19  1  0  0  0  0
  8 20  1  0  0  0  0
 10 21  1  0  0  0  0
 10 22  1  0  0  0  0
 11 23  1  0  0  0  0
 11 24  1  0  0  0  0
 11 25  1  0  0  0  0
 12 26  1  0  0  0  0
M  END
