
 OpenBabel02012214103D

 22 22  0  0  0  0  0  0  0  0999 V2000
    1.1867   -0.3063   -0.0995 C   0  0  0  0  0  0  0  0  0  0  0  0
    2.5560    0.0687    0.0130 O   0  0  0  0  0  0  0  0  0  0  0  0
    3.1564   -0.2393    1.2036 C   0  0  0  0  0  0  0  0  0  0  0  0
    2.7886   -1.2977    2.0361 C   0  0  0  0  0  0  0  0  0  0  0  0
    3.4807   -1.5403    3.2293 C   0  0  0  0  0  0  0  0  0  0  0  0
    3.0892   -2.6798    4.1230 C   0  0  0  0  0  0  0  0  0  0  0  0
    4.5550   -0.7109    3.5803 C   0  0  0  0  0  0  0  0  0  0  0  0
    4.9443    0.3444    2.7462 C   0  0  0  0  0  0  0  0  0  0  0  0
    6.0961    1.2331    3.1131 C   0  0  0  0  0  0  0  0  0  0  0  0
    4.2448    0.5631    1.5531 C   0  0  0  0  0  0  0  0  0  0  0  0
    0.8159    0.0670   -1.0583 H   0  0  0  0  0  0  0  0  0  0  0  0
    0.5903    0.1544    0.6960 H   0  0  0  0  0  0  0  0  0  0  0  0
    1.0628   -1.3931   -0.1057 H   0  0  0  0  0  0  0  0  0  0  0  0
    1.9719   -1.9598    1.7678 H   0  0  0  0  0  0  0  0  0  0  0  0
    2.2465   -3.2433    3.7089 H   0  0  0  0  0  0  0  0  0  0  0  0
    2.7889   -2.3026    5.1057 H   0  0  0  0  0  0  0  0  0  0  0  0
    3.9279   -3.3730    4.2418 H   0  0  0  0  0  0  0  0  0  0  0  0
    5.0931   -0.8963    4.5076 H   0  0  0  0  0  0  0  0  0  0  0  0
    6.5351    0.9460    4.0742 H   0  0  0  0  0  0  0  0  0  0  0  0
    5.7590    2.2712    3.1966 H   0  0  0  0  0  0  0  0  0  0  0  0
    6.8806    1.1685    2.3525 H   0  0  0  0  0  0  0  0  0  0  0  0
    4.5362    1.3761    0.8914 H   0  0  0  0  0  0  0  0  0  0  0  0
  1  2  1  0  0  0  0
  1 11  1  0  0  0  0
  1 12  1  0  0  0  0
  1 13  1  0  0  0  0
  2  3  1  0  0  0  0
  3  4  1  0  0  0  0
  3 10  2  0  0  0  0
  4  5  2  0  0  0  0
  4 14  1  0  0  0  0
  5  6  1  0  0  0  0
  5  7  1  0  0  0  0
  6 15  1  0  0  0  0
  6 16  1  0  0  0  0
  6 17  1  0  0  0  0
  7  8  2  0  0  0  0
  7 18  1  0  0  0  0
  8  9  1  0  0  0  0
  8 10  1  0  0  0  0
  9 19  1  0  0  0  0
  9 20  1  0  0  0  0
  9 21  1  0  0  0  0
 10 22  1  0  0  0  0
M  END
