
  xtb     02032211353D
 xtb: 6.4.1 (23d549d)
 20 20  0     0  0            999 V2000
    2.8216    2.3207   -0.2687 C   0  0  0  0  0  0  0  0  0  0  0  0
    2.5325    1.0901    0.1351 C   0  0  0  0  0  0  0  0  0  0  0  0
    1.2318    0.4271    0.0629 C   0  0  0  0  0  0  0  0  0  0  0  0
    1.1938   -0.9708    0.0783 C   0  0  0  0  0  0  0  0  0  0  0  0
    2.3408   -1.6601    0.1531 F   0  0  0  0  0  0  0  0  0  0  0  0
   -0.0000   -1.6725    0.0004 C   0  0  0  0  0  0  0  0  0  0  0  0
   -0.0000   -3.0113    0.0006 F   0  0  0  0  0  0  0  0  0  0  0  0
   -1.1938   -0.9708   -0.0779 C   0  0  0  0  0  0  0  0  0  0  0  0
   -2.3408   -1.6601   -0.1524 F   0  0  0  0  0  0  0  0  0  0  0  0
   -1.2318    0.4271   -0.0630 C   0  0  0  0  0  0  0  0  0  0  0  0
   -2.5325    1.0901   -0.1354 C   0  0  0  0  0  0  0  0  0  0  0  0
   -2.8215    2.3210    0.2674 C   0  0  0  0  0  0  0  0  0  0  0  0
    0.0000    1.0836   -0.0002 C   0  0  0  0  0  0  0  0  0  0  0  0
    0.0001    2.4258   -0.0004 F   0  0  0  0  0  0  0  0  0  0  0  0
    3.8236    2.7024   -0.1761 H   0  0  0  0  0  0  0  0  0  0  0  0
    2.0986    2.9843   -0.7078 H   0  0  0  0  0  0  0  0  0  0  0  0
    3.3189    0.4631    0.5341 H   0  0  0  0  0  0  0  0  0  0  0  0
   -3.3189    0.4627   -0.5338 H   0  0  0  0  0  0  0  0  0  0  0  0
   -2.0985    2.9850    0.7058 H   0  0  0  0  0  0  0  0  0  0  0  0
   -3.8236    2.7026    0.1747 H   0  0  0  0  0  0  0  0  0  0  0  0
  1  2  2  0  0  0  0
  2  3  1  0  0  0  0
  3  4  4  0  0  0  0
  4  5  1  0  0  0  0
  4  6  4  0  0  0  0
  6  7  1  0  0  0  0
  6  8  4  0  0  0  0
  8  9  1  0  0  0  0
  8 10  4  0  0  0  0
 10 11  1  0  0  0  0
 11 12  2  0  0  0  0
  3 13  4  0  0  0  0
 10 13  4  0  0  0  0
 13 14  1  0  0  0  0
  1 15  1  0  0  0  0
  1 16  1  0  0  0  0
  2 17  1  0  0  0  0
 11 18  1  0  0  0  0
 12 19  1  0  0  0  0
 12 20  1  0  0  0  0
M  END
