 xtb: 6.5.0 (unknown)
          08112218553D

 23  0  0     0  0            999 V2000
   -3.9473    1.3862    0.2887 C   0  0  0  0  0  0  0  0  0  0  0  0
   -3.4499    0.3398   -0.3531 C   0  0  0  0  0  0  0  0  0  0  0  0
   -2.1171   -0.2381   -0.1388 C   0  0  0  0  0  0  0  0  0  0  0  0
   -2.0502   -1.6236    0.0112 C   0  0  0  0  0  0  0  0  0  0  0  0
   -0.8504   -2.2548    0.2684 C   0  0  0  0  0  0  0  0  0  0  0  0
    0.3072   -1.5077    0.3703 C   0  0  0  0  0  0  0  0  0  0  0  0
    0.2716   -0.1270    0.1911 C   0  0  0  0  0  0  0  0  0  0  0  0
    1.4962    0.6628    0.3171 C   0  0  0  0  0  0  0  0  0  0  0  0
    2.7178    0.2629    0.0072 C   0  0  0  0  0  0  0  0  0  0  0  0
    3.0804   -0.9020   -0.5183 F   0  0  0  0  0  0  0  0  0  0  0  0
    3.8030    1.0217    0.1662 F   0  0  0  0  0  0  0  0  0  0  0  0
   -0.9445    0.5210   -0.0768 C   0  0  0  0  0  0  0  0  0  0  0  0
   -0.9480    1.9941   -0.3634 C   0  0  0  0  0  0  0  0  0  0  0  0
   -4.9522    1.7310    0.1119 H   0  0  0  0  0  0  0  0  0  0  0  0
   -3.3829    1.9236    1.0318 H   0  0  0  0  0  0  0  0  0  0  0  0
   -4.0730   -0.2038   -1.0533 H   0  0  0  0  0  0  0  0  0  0  0  0
   -2.9606   -2.2013   -0.0585 H   0  0  0  0  0  0  0  0  0  0  0  0
   -0.8154   -3.3262    0.3948 H   0  0  0  0  0  0  0  0  0  0  0  0
    1.2416   -1.9961    0.5963 H   0  0  0  0  0  0  0  0  0  0  0  0
    1.4160    1.6672    0.7038 H   0  0  0  0  0  0  0  0  0  0  0  0
   -0.1170    2.2535   -1.0169 H   0  0  0  0  0  0  0  0  0  0  0  0
   -0.8479    2.5700    0.5571 H   0  0  0  0  0  0  0  0  0  0  0  0
   -1.8739    2.2890   -0.8487 H   0  0  0  0  0  0  0  0  0  0  0  0
M  END
