
 OpenBabel08112216233D

 26 26  0  0  0  0  0  0  0  0999 V2000
    1.1035    0.2530    0.4798 C   0  0  0  0  0  0  0  0  0  0  0  0
    2.2982    0.0384   -0.0900 C   0  0  0  0  0  0  0  0  0  0  0  0
    3.0354   -1.2399   -0.0684 C   0  0  0  0  0  0  0  0  0  0  0  0
    2.3405   -2.4598   -0.0852 C   0  0  0  0  0  0  0  0  0  0  0  0
    3.0005   -3.7042   -0.0928 C   0  0  0  0  0  0  0  0  0  0  0  0
    2.1560   -4.9527   -0.0902 C   0  0  0  0  0  0  0  0  0  0  0  0
    4.4077   -3.7399   -0.1107 C   0  0  0  0  0  0  0  0  0  0  0  0
    5.1439   -5.0190   -0.0702 C   0  0  0  0  0  0  0  0  0  0  0  0
    6.3500   -5.2734   -0.5901 C   0  0  0  0  0  0  0  0  0  0  0  0
    7.0517   -4.3354   -1.2583 F   0  0  0  0  0  0  0  0  0  0  0  0
    6.8764   -6.5086   -0.4421 F   0  0  0  0  0  0  0  0  0  0  0  0
    5.1026   -2.5193   -0.0964 C   0  0  0  0  0  0  0  0  0  0  0  0
    4.4409   -1.2748   -0.0852 C   0  0  0  0  0  0  0  0  0  0  0  0
    5.2765   -0.0219   -0.0787 C   0  0  0  0  0  0  0  0  0  0  0  0
    0.6374    1.2316    0.4180 H   0  0  0  0  0  0  0  0  0  0  0  0
    0.5651   -0.5136    1.0260 H   0  0  0  0  0  0  0  0  0  0  0  0
    2.7798    0.8665   -0.6015 H   0  0  0  0  0  0  0  0  0  0  0  0
    1.2510   -2.4492   -0.0992 H   0  0  0  0  0  0  0  0  0  0  0  0
    1.0865   -4.7154   -0.1007 H   0  0  0  0  0  0  0  0  0  0  0  0
    2.3460   -5.5401    0.8143 H   0  0  0  0  0  0  0  0  0  0  0  0
    2.3649   -5.5589   -0.9768 H   0  0  0  0  0  0  0  0  0  0  0  0
    4.6502   -5.8408    0.4380 H   0  0  0  0  0  0  0  0  0  0  0  0
    6.1915   -2.5202   -0.0818 H   0  0  0  0  0  0  0  0  0  0  0  0
    6.3481   -0.2506   -0.0650 H   0  0  0  0  0  0  0  0  0  0  0  0
    5.0592    0.5758    0.8123 H   0  0  0  0  0  0  0  0  0  0  0  0
    5.0853    0.5712   -0.9787 H   0  0  0  0  0  0  0  0  0  0  0  0
  1  2  2  0  0  0  0
  1 15  1  0  0  0  0
  1 16  1  0  0  0  0
  2  3  1  0  0  0  0
  2 17  1  0  0  0  0
  3  4  1  0  0  0  0
  3 13  2  0  0  0  0
  4  5  2  0  0  0  0
  4 18  1  0  0  0  0
  5  6  1  0  0  0  0
  5  7  1  0  0  0  0
  6 19  1  0  0  0  0
  6 20  1  0  0  0  0
  6 21  1  0  0  0  0
  7  8  1  0  0  0  0
  7 12  2  0  0  0  0
  8  9  2  0  0  0  0
  8 22  1  0  0  0  0
  9 10  1  0  0  0  0
  9 11  1  0  0  0  0
 12 13  1  0  0  0  0
 12 23  1  0  0  0  0
 13 14  1  0  0  0  0
 14 24  1  0  0  0  0
 14 25  1  0  0  0  0
 14 26  1  0  0  0  0
M  END
