
  xtb     02032211223D
 xtb: 6.4.1 (23d549d)
 26 26  0     0  0            999 V2000
    0.9170   -0.2292   -0.4476 c   0  0  0  0  0  0  0  0  0  0  0  0
    2.1848   -0.2447   -0.0571 c   0  0  0  0  0  0  0  0  0  0  0  0
    2.8675   -1.2756    0.7190 c   0  0  0  0  0  0  0  0  0  0  0  0
    3.8643   -0.8682    1.6054 c   0  0  0  0  0  0  0  0  0  0  0  0
    4.5631   -1.7665    2.4006 c   0  0  0  0  0  0  0  0  0  0  0  0
    5.4512   -1.2528    3.4382 c   0  0  0  0  0  0  0  0  0  0  0  0
    5.5517   -1.7563    4.6635 c   0  0  0  0  0  0  0  0  0  0  0  0
    4.3009   -3.1333    2.1611 c   0  0  0  0  0  0  0  0  0  0  0  0
    4.9898   -4.1700    2.7455 n   0  0  0  0  0  0  0  0  0  0  0  0
    6.3671   -4.1240    3.0307 n   0  0  0  0  0  0  0  0  0  0  0  0
    3.3506   -3.5278    1.3182 n   0  0  0  0  0  0  0  0  0  0  0  0
    2.6224   -2.6574    0.6411 c   0  0  0  0  0  0  0  0  0  0  0  0
    1.5952   -3.2704   -0.2581 c   0  0  0  0  0  0  0  0  0  0  0  0
    0.5214    0.6046   -1.0037 h   0  0  0  0  0  0  0  0  0  0  0  0
    0.2194   -1.0113   -0.2104 h   0  0  0  0  0  0  0  0  0  0  0  0
    2.8076    0.6135   -0.2862 h   0  0  0  0  0  0  0  0  0  0  0  0
    4.0659    0.1893    1.7185 h   0  0  0  0  0  0  0  0  0  0  0  0
    6.0007   -0.3555    3.1771 h   0  0  0  0  0  0  0  0  0  0  0  0
    4.9577   -2.5987    4.9802 h   0  0  0  0  0  0  0  0  0  0  0  0
    6.1942   -1.3128    5.4055 h   0  0  0  0  0  0  0  0  0  0  0  0
    4.7128   -5.0671    2.3605 h   0  0  0  0  0  0  0  0  0  0  0  0
    6.5120   -3.7444    3.9675 h   0  0  0  0  0  0  0  0  0  0  0  0
    6.8536   -3.5095    2.3775 h   0  0  0  0  0  0  0  0  0  0  0  0
    1.8586   -4.3103   -0.4321 h   0  0  0  0  0  0  0  0  0  0  0  0
    1.5377   -2.7372   -1.2040 h   0  0  0  0  0  0  0  0  0  0  0  0
    0.6155   -3.2459    0.2172 h   0  0  0  0  0  0  0  0  0  0  0  0
  1  2  2  0  0  0  0
  2  3  1  0  0  0  0
  3  4  4  0  0  0  0
  4  5  4  0  0  0  0
  5  6  1  0  0  0  0
  6  7  2  0  0  0  0
  5  8  4  0  0  0  0
  8  9  1  0  0  0  0
  9 10  1  0  0  0  0
  8 11  4  0  0  0  0
  3 12  4  0  0  0  0
 11 12  4  0  0  0  0
 12 13  1  0  0  0  0
  1 14  1  0  0  0  0
  1 15  1  0  0  0  0
  2 16  1  0  0  0  0
  4 17  1  0  0  0  0
  6 18  1  0  0  0  0
  7 19  1  0  0  0  0
  7 20  1  0  0  0  0
  9 21  1  0  0  0  0
 10 22  1  0  0  0  0
 10 23  1  0  0  0  0
 13 24  1  0  0  0  0
 13 25  1  0  0  0  0
 13 26  1  0  0  0  0
M  END
