 xtb: 6.5.0 (unknown)
          08122213083D

 23  0  0     0  0            999 V2000
   -1.9857    3.9782    0.2286 C   0  0  0  0  0  0  0  0  0  0  0  0
   -2.4846    2.7553    0.0960 C   0  0  0  0  0  0  0  0  0  0  0  0
   -1.7383    1.5019    0.0963 C   0  0  0  0  0  0  0  0  0  0  0  0
   -2.4262    0.3110   -0.1483 C   0  0  0  0  0  0  0  0  0  0  0  0
   -1.7880   -0.9171   -0.1492 C   0  0  0  0  0  0  0  0  0  0  0  0
   -2.5186   -2.2012   -0.3856 C   0  0  0  0  0  0  0  0  0  0  0  0
   -0.4178   -0.9347    0.0879 C   0  0  0  0  0  0  0  0  0  0  0  0
    0.2015   -2.1322    0.1431 F   0  0  0  0  0  0  0  0  0  0  0  0
    0.3159    0.2269    0.3169 C   0  0  0  0  0  0  0  0  0  0  0  0
    1.7575    0.2146    0.5596 C   0  0  0  0  0  0  0  0  0  0  0  0
    2.6415   -0.5599   -0.0482 C   0  0  0  0  0  0  0  0  0  0  0  0
    2.4180   -1.4317   -1.0160 F   0  0  0  0  0  0  0  0  0  0  0  0
    3.9463   -0.5176    0.2120 F   0  0  0  0  0  0  0  0  0  0  0  0
   -0.3692    1.4378    0.3351 C   0  0  0  0  0  0  0  0  0  0  0  0
   -2.6238    4.8449    0.2131 H   0  0  0  0  0  0  0  0  0  0  0  0
   -0.9344    4.1720    0.3528 H   0  0  0  0  0  0  0  0  0  0  0  0
   -3.5531    2.6381   -0.0349 H   0  0  0  0  0  0  0  0  0  0  0  0
   -3.4901    0.3452   -0.3343 H   0  0  0  0  0  0  0  0  0  0  0  0
   -3.5732   -2.0184   -0.5707 H   0  0  0  0  0  0  0  0  0  0  0  0
   -2.4175   -2.8555    0.4795 H   0  0  0  0  0  0  0  0  0  0  0  0
   -2.0916   -2.7236   -1.2406 H   0  0  0  0  0  0  0  0  0  0  0  0
    2.1449    0.9210    1.2780 H   0  0  0  0  0  0  0  0  0  0  0  0
    0.1901    2.3387    0.5299 H   0  0  0  0  0  0  0  0  0  0  0  0
M  END
