
 OpenBabel02012214113D

 17 17  0  0  0  0  0  0  0  0999 V2000
    1.1880    0.1942   -0.0614 C   0  0  0  0  0  0  0  0  0  0  0  0
    2.6722    0.0254   -0.0701 C   0  0  0  0  0  0  0  0  0  0  0  0
    3.5525    1.0467   -0.0824 N   0  0  0  0  0  0  0  0  0  0  0  0
    4.7675    0.5134   -0.0878 N   0  0  0  0  0  0  0  0  0  0  0  0
    4.6907   -0.8090   -0.0794 N   0  0  0  0  0  0  0  0  0  0  0  0
    5.8502   -1.6921   -0.0822 C   0  0  0  0  0  0  0  0  0  0  0  0
    3.3878   -1.1543   -0.0673 C   0  0  0  0  0  0  0  0  0  0  0  0
    2.8393   -2.5503   -0.0551 C   0  0  0  0  0  0  0  0  0  0  0  0
    0.9288    1.2738   -0.0656 H   0  0  0  0  0  0  0  0  0  0  0  0
    0.7608   -0.2741    0.8498 H   0  0  0  0  0  0  0  0  0  0  0  0
    0.7494   -0.2835   -0.9622 H   0  0  0  0  0  0  0  0  0  0  0  0
    6.7862   -1.0942   -0.0916 H   0  0  0  0  0  0  0  0  0  0  0  0
    5.8285   -2.3371   -0.9855 H   0  0  0  0  0  0  0  0  0  0  0  0
    5.8404   -2.3275    0.8282 H   0  0  0  0  0  0  0  0  0  0  0  0
    3.6551   -3.3024   -0.0559 H   0  0  0  0  0  0  0  0  0  0  0  0
    2.2094   -2.7129   -0.9542 H   0  0  0  0  0  0  0  0  0  0  0  0
    2.2225   -2.7010    0.8551 H   0  0  0  0  0  0  0  0  0  0  0  0
  1  2  1  0  0  0  0
  1  9  1  0  0  0  0
  1 10  1  0  0  0  0
  1 11  1  0  0  0  0
  2  3  1  0  0  0  0
  2  7  2  0  0  0  0
  3  4  2  0  0  0  0
  4  5  1  0  0  0  0
  5  6  1  0  0  0  0
  5  7  1  0  0  0  0
  6 12  1  0  0  0  0
  6 13  1  0  0  0  0
  6 14  1  0  0  0  0
  7  8  1  0  0  0  0
  8 15  1  0  0  0  0
  8 16  1  0  0  0  0
  8 17  1  0  0  0  0
M  END
