
 OpenBabel02032210583D

 23 23  0  0  0  0  0  0  0  0999 V2000
    0.9392   -0.0656   -0.1797 C   0  0  0  0  0  0  0  0  0  0  0  0
    2.2675    0.0296   -0.0450 C   0  0  0  0  0  0  0  0  0  0  0  0
    3.0296   -0.5472    1.0701 C   0  0  0  0  0  0  0  0  0  0  0  0
    4.1469    0.1322    1.5496 C   0  0  0  0  0  0  0  0  0  0  0  0
    4.9092   -0.4018    2.5952 C   0  0  0  0  0  0  0  0  0  0  0  0
    4.5790   -1.6278    3.2025 C   0  0  0  0  0  0  0  0  0  0  0  0
    5.4332   -2.1217    4.3043 C   0  0  0  0  0  0  0  0  0  0  0  0
    6.1038   -1.3535    5.1742 C   0  0  0  0  0  0  0  0  0  0  0  0
    3.4726   -2.3368    2.6826 C   0  0  0  0  0  0  0  0  0  0  0  0
    3.0965   -3.6963    3.1711 C   0  0  0  0  0  0  0  0  0  0  0  0
    3.8925   -4.5685    3.4604 O   0  0  0  0  0  0  0  0  0  0  0  0
    1.7550   -3.8966    3.2363 O   0  0  0  0  0  0  0  0  0  0  0  0
    2.7193   -1.7971    1.6176 C   0  0  0  0  0  0  0  0  0  0  0  0
    0.4421    0.3985   -1.0269 H   0  0  0  0  0  0  0  0  0  0  0  0
    0.3097   -0.5821    0.5366 H   0  0  0  0  0  0  0  0  0  0  0  0
    2.8402    0.5911   -0.7804 H   0  0  0  0  0  0  0  0  0  0  0  0
    4.4444    1.0871    1.1175 H   0  0  0  0  0  0  0  0  0  0  0  0
    5.7863    0.1593    2.9147 H   0  0  0  0  0  0  0  0  0  0  0  0
    5.5311   -3.2017    4.4016 H   0  0  0  0  0  0  0  0  0  0  0  0
    6.0635   -0.2714    5.1643 H   0  0  0  0  0  0  0  0  0  0  0  0
    6.7188   -1.8140    5.9424 H   0  0  0  0  0  0  0  0  0  0  0  0
    1.2048   -3.1043    3.0949 H   0  0  0  0  0  0  0  0  0  0  0  0
    1.9124   -2.3754    1.1758 H   0  0  0  0  0  0  0  0  0  0  0  0
  1  2  2  0  0  0  0
  1 14  1  0  0  0  0
  1 15  1  0  0  0  0
  2  3  1  0  0  0  0
  2 16  1  0  0  0  0
  3  4  1  0  0  0  0
  3 13  2  0  0  0  0
  4  5  2  0  0  0  0
  4 17  1  0  0  0  0
  5  6  1  0  0  0  0
  5 18  1  0  0  0  0
  6  7  1  0  0  0  0
  6  9  2  0  0  0  0
  7  8  2  0  0  0  0
  7 19  1  0  0  0  0
  8 20  1  0  0  0  0
  8 21  1  0  0  0  0
  9 10  1  0  0  0  0
  9 13  1  0  0  0  0
 10 11  2  0  0  0  0
 10 12  1  0  0  0  0
 12 22  1  0  0  0  0
 13 23  1  0  0  0  0
M  END
