
  xtb     02032211343D
 xtb: 6.4.1 (23d549d)
 24 24  0     0  0            999 V2000
   -4.2711    0.9085    0.0033 C   0  0  0  0  0  0  0  0  0  0  0  0
   -3.3446   -0.1948   -0.0440 N   0  0  0  0  0  0  0  0  0  0  0  0
   -1.9959    0.0323   -0.0196 C   0  0  0  0  0  0  0  0  0  0  0  0
   -1.4696    1.3342    0.0004 C   0  0  0  0  0  0  0  0  0  0  0  0
   -0.1116    1.5515    0.0076 C   0  0  0  0  0  0  0  0  0  0  0  0
    0.8032    0.4954   -0.0021 C   0  0  0  0  0  0  0  0  0  0  0  0
    2.2190    0.8016    0.0084 C   0  0  0  0  0  0  0  0  0  0  0  0
    3.2485   -0.0335    0.0050 C   0  0  0  0  0  0  0  0  0  0  0  0
    3.2296   -1.3655   -0.0088 F   0  0  0  0  0  0  0  0  0  0  0  0
    4.5219    0.3760    0.0159 F   0  0  0  0  0  0  0  0  0  0  0  0
    0.2833   -0.8011   -0.0195 C   0  0  0  0  0  0  0  0  0  0  0  0
   -1.0737   -1.0273   -0.0272 C   0  0  0  0  0  0  0  0  0  0  0  0
   -3.8582   -1.5383    0.0603 C   0  0  0  0  0  0  0  0  0  0  0  0
   -4.1006    1.5924   -0.8324 H   0  0  0  0  0  0  0  0  0  0  0  0
   -4.1848    1.4718    0.9394 H   0  0  0  0  0  0  0  0  0  0  0  0
   -5.2883    0.5323   -0.0751 H   0  0  0  0  0  0  0  0  0  0  0  0
   -2.1249    2.1893    0.0144 H   0  0  0  0  0  0  0  0  0  0  0  0
    0.2557    2.5679    0.0241 H   0  0  0  0  0  0  0  0  0  0  0  0
    2.4844    1.8493    0.0207 H   0  0  0  0  0  0  0  0  0  0  0  0
    0.9468   -1.6505   -0.0267 H   0  0  0  0  0  0  0  0  0  0  0  0
   -1.4180   -2.0480   -0.0419 H   0  0  0  0  0  0  0  0  0  0  0  0
   -4.9449   -1.5119    0.0782 H   0  0  0  0  0  0  0  0  0  0  0  0
   -3.5135   -2.0295    0.9763 H   0  0  0  0  0  0  0  0  0  0  0  0
   -3.5485   -2.1428   -0.7972 H   0  0  0  0  0  0  0  0  0  0  0  0
  1  2  1  0  0  0  0
  2  3  1  0  0  0  0
  3  4  4  0  0  0  0
  4  5  4  0  0  0  0
  5  6  4  0  0  0  0
  6  7  1  0  0  0  0
  7  8  2  0  0  0  0
  8  9  1  0  0  0  0
  8 10  1  0  0  0  0
  6 11  4  0  0  0  0
  3 12  4  0  0  0  0
 11 12  4  0  0  0  0
  2 13  1  0  0  0  0
  1 14  1  0  0  0  0
  1 15  1  0  0  0  0
  1 16  1  0  0  0  0
  4 17  1  0  0  0  0
  5 18  1  0  0  0  0
  7 19  1  0  0  0  0
 11 20  1  0  0  0  0
 12 21  1  0  0  0  0
 13 22  1  0  0  0  0
 13 23  1  0  0  0  0
 13 24  1  0  0  0  0
M  END
