46

C          2.70479       -2.27033        0.82287
C          3.26786       -0.96112        0.36917
C          4.56076       -0.51462        0.55745
N          4.70100        0.71430        0.02060
Si         6.18820        1.74180        0.00480
C          7.20910        1.31630        1.56510
C          8.48375        2.16355        1.63247
C          6.40684        1.49852        2.85906
C          7.22940        1.21590       -1.51250
C          7.63344       -0.25826       -1.48253
C          6.55973        1.56789       -2.84376
C          5.68200        3.59570        0.10840
C          4.91111        3.92457        1.39079
C          6.85988        4.57304       -0.02768
C          3.51170        1.05290       -0.52160
C          2.60266        0.03431       -0.31807
C          1.17393        0.01866       -0.75761
H          3.47866       -2.86495        1.35251
H          2.34409       -2.84766       -0.05345
H          1.85690       -2.08877        1.51601
H          5.34176       -1.07298        1.05205
H          7.49765        0.24683        1.49853
H          8.23298        3.24405        1.70811
H          9.11519        2.00004        0.73643
H          9.08317        1.87884        2.52465
H          6.12035        2.55835        3.01013
H          7.01951        1.18352        3.73077
H          5.49523        0.86813        2.85381
H          8.16723        1.80657       -1.44579
H          6.75931       -0.91859       -1.61575
H          8.14696       -0.50130       -0.53124
H          8.33357       -0.46775       -2.32013
H          5.64133        0.97720       -3.00436
H          7.25012        1.34846       -3.68398
H          6.31032        2.64942       -2.88524
H          4.99908        3.76780       -0.74970
H          5.56429        3.85156        2.27989
H          4.03844        3.25412        1.51664
H          4.53545        4.96938        1.34796
H          7.54232        4.50901        0.83655
H          6.47871        5.61679       -0.06514
H          7.44638        4.40213       -0.94849
H          3.30599        1.98666       -1.02589
H          0.92048        0.95904       -1.29073
H          0.51270       -0.08267        0.12812
H          1.00347       -0.83843       -1.44185
46

C          2.69345       -2.27770       -0.72383
C          3.26300       -0.96424       -0.29100
C          4.54520       -0.50875       -0.52529
N          4.70100        0.71430        0.02060
Si         6.18820        1.74180        0.00480
C          7.20910        1.31630        1.56510
C          8.48375        2.16355        1.63247
C          6.40684        1.49852        2.85906
C          7.22940        1.21590       -1.51250
C          7.63344       -0.25826       -1.48253
C          6.55973        1.56789       -2.84376
C          5.68200        3.59570        0.10840
C          6.88970        4.53791        0.08292
C          4.68765        4.03305       -0.97840
C          3.52464        1.05129        0.59129
C          2.61475        0.02811        0.41660
C          1.20169        0.00403        0.90382
H          3.45367       -2.86920       -1.27625
H          1.81882       -2.10785       -1.38528
H          2.37129       -2.85402        0.16858
H          5.30306       -1.04964       -1.07250
H          7.49765        0.24683        1.49853
H          8.23298        3.24405        1.70811
H          9.11519        2.00004        0.73643
H          9.08317        1.87884        2.52465
H          6.12035        2.55835        3.01013
H          7.01951        1.18352        3.73077
H          5.49523        0.86813        2.85381
H          8.16723        1.80657       -1.44579
H          6.75931       -0.91859       -1.61575
H          8.14696       -0.50130       -0.53124
H          8.33357       -0.46775       -2.32013
H          5.64133        0.97720       -3.00436
H          7.25012        1.34846       -3.68398
H          6.31032        2.64942       -2.88524
H          5.18153        3.71469        1.09212
H          7.38487        4.52668       -0.90559
H          7.62386        4.26937        0.86765
H          6.55795        5.58192        0.26878
H          5.14719        4.01248       -1.98096
H          4.36290        5.07960       -0.79031
H          3.77958        3.40370       -0.99809
H          3.33487        1.97778        1.11486
H          0.95950        0.94459        1.44184
H          1.06043       -0.85290        1.59500
H          0.51146       -0.10349        0.04134
46

C          2.37368       -1.82335       -1.27571
C          3.12651       -0.77030       -0.52654
C          4.31866       -0.18672       -0.90681
N          4.70100        0.71430        0.02060
Si         6.18820        1.74180        0.00480
C          7.20910        1.31630        1.56510
C          7.62123       -0.15926        1.56338
C          8.45818        2.19432        1.70663
C          7.22940        1.21590       -1.51250
C          6.49867        1.41368       -2.84074
C          8.60775        1.88191       -1.54722
C          5.68200        3.59570        0.10840
C          6.88970        4.53791        0.08292
C          4.68765        4.03305       -0.97840
C          3.75642        0.72188        0.98536
C          2.76900       -0.19119        0.67450
C          1.55067       -0.49212        1.48679
H          2.90817       -2.09401       -2.21060
H          1.36182       -1.44870       -1.53483
H          2.27745       -2.73067       -0.64340
H          4.85567       -0.41352       -1.81595
H          6.56675        1.50371        2.45037
H          8.27434       -0.38306        0.69192
H          6.73103       -0.81852        1.52775
H          8.18196       -0.39878        2.49319
H          9.16677        2.02525        0.87148
H          8.98463        1.95208        2.65459
H          8.18682        3.26819        1.74721
H          7.39090        0.12364       -1.39522
H          6.36025        2.48447       -3.06910
H          5.51570        0.90261       -2.82346
H          7.10378        0.97794       -3.66511
H          8.52823        2.97004       -1.71403
H          9.21114        1.45926       -2.37670
H          9.15847        1.69680       -0.60061
H          5.18153        3.71469        1.09212
H          7.38487        4.52668       -0.90559
H          7.62386        4.26937        0.86765
H          6.55795        5.58192        0.26878
H          5.14719        4.01248       -1.98096
H          4.36290        5.07960       -0.79031
H          3.77958        3.40370       -0.99809
H          3.78211        1.34206        1.87037
H          1.53114        0.13200        2.40487
H          1.55291       -1.56288        1.77917
H          0.64091       -0.27783        0.88824
46

C          1.96500       -1.18791        1.58022
C          2.95211       -0.49913        0.69245
C          4.04669        0.23777        1.09899
N          4.70100        0.71430        0.02060
Si         6.18820        1.74180        0.00480
C          7.20910        1.31630        1.56510
C          7.62123       -0.15926        1.56338
C          8.45818        2.19432        1.70663
C          7.22940        1.21590       -1.51250
C          6.49867        1.41368       -2.84074
C          8.60775        1.88191       -1.54722
C          5.68200        3.59570        0.10840
C          6.88970        4.53791        0.08292
C          4.68765        4.03305       -0.97840
C          4.04161        0.27742       -1.07366
C          2.95071       -0.47513       -0.68780
C          1.96081       -1.13313       -1.59436
H          2.22417       -1.02928        2.64821
H          1.96492       -2.27699        1.36748
H          0.95019       -0.77828        1.39391
H          4.33714        0.39763        2.12682
H          6.56675        1.50371        2.45037
H          8.27434       -0.38306        0.69192
H          6.73103       -0.81852        1.52775
H          8.18196       -0.39878        2.49319
H          9.16677        2.02525        0.87148
H          8.98463        1.95208        2.65459
H          8.18682        3.26819        1.74721
H          7.39090        0.12364       -1.39522
H          6.36025        2.48447       -3.06910
H          5.51570        0.90261       -2.82346
H          7.10378        0.97794       -3.66511
H          8.52823        2.97004       -1.71403
H          9.21114        1.45926       -2.37670
H          9.15847        1.69680       -0.60061
H          5.18153        3.71469        1.09212
H          7.38487        4.52668       -0.90559
H          7.62386        4.26937        0.86765
H          6.55795        5.58192        0.26878
H          5.14719        4.01248       -1.98096
H          4.36290        5.07960       -0.79031
H          3.77958        3.40370       -0.99809
H          4.32332        0.49776       -2.09377
H          2.21799       -0.93998       -2.65705
H          0.94573       -0.73280       -1.39095
H          1.96442       -2.22893       -1.41813
46

C          2.70479       -2.27033        0.82287
C          3.26786       -0.96112        0.36917
C          4.56076       -0.51462        0.55745
N          4.70100        0.71430        0.02060
Si         6.18820        1.74180        0.00480
C          7.20910        1.31630        1.56510
C          6.39806        1.57960        2.83789
C          7.70207       -0.13564        1.56595
C          7.22940        1.21590       -1.51250
C          7.63344       -0.25826       -1.48253
C          6.55973        1.56789       -2.84376
C          5.68200        3.59570        0.10840
C          4.78075        4.02557       -1.05345
C          5.00583        3.98523        1.43210
C          3.51170        1.05290       -0.52160
C          2.60266        0.03431       -0.31807
C          1.17393        0.01866       -0.75761
H          3.47866       -2.86495        1.35251
H          2.34409       -2.84766       -0.05345
H          1.85690       -2.08877        1.51601
H          5.34176       -1.07298        1.05205
H          8.10361        1.97299        1.57279
H          5.49522        0.93151        2.86878
H          6.08420        2.64104        2.89440
H          7.01731        1.36222        3.73545
H          6.85485       -0.84921        1.60029
H          8.33773       -0.31810        2.45876
H          8.32352       -0.34507        0.67242
H          8.16723        1.80657       -1.44579
H          6.75931       -0.91859       -1.61575
H          8.14696       -0.50130       -0.53124
H          8.33357       -0.46775       -2.32013
H          5.64133        0.97720       -3.00436
H          7.25012        1.34846       -3.68398
H          6.31032        2.64942       -2.88524
H          6.62929        4.16929        0.03110
H          3.78569        3.54839       -0.98542
H          5.24241        3.78106       -2.03018
H          4.61786        5.12412       -1.01838
H          4.01745        3.50731        1.53899
H          4.84089        5.08438        1.45971
H          5.61815        3.72068        2.31310
H          3.30599        1.98666       -1.02589
H          0.92048        0.95904       -1.29073
H          0.51270       -0.08267        0.12812
H          1.00347       -0.83843       -1.44185
46

C          2.70479       -2.27033        0.82287
C          3.26786       -0.96112        0.36917
C          4.56076       -0.51462        0.55745
N          4.70100        0.71430        0.02060
Si         6.18820        1.74180        0.00480
C          7.20910        1.31630        1.56510
C          7.62123       -0.15926        1.56338
C          8.45818        2.19432        1.70663
C          7.22940        1.21590       -1.51250
C          7.63344       -0.25826       -1.48253
C          6.55973        1.56789       -2.84376
C          5.68200        3.59570        0.10840
C          4.78075        4.02557       -1.05345
C          5.00583        3.98523        1.43210
C          3.51170        1.05290       -0.52160
C          2.60266        0.03431       -0.31807
C          1.17393        0.01866       -0.75761
H          3.47866       -2.86495        1.35251
H          2.34409       -2.84766       -0.05345
H          1.85690       -2.08877        1.51601
H          5.34176       -1.07298        1.05205
H          6.56675        1.50371        2.45037
H          8.27434       -0.38306        0.69192
H          6.73103       -0.81852        1.52775
H          8.18196       -0.39878        2.49319
H          9.16677        2.02525        0.87148
H          8.98463        1.95208        2.65459
H          8.18682        3.26819        1.74721
H          8.16723        1.80657       -1.44579
H          6.75931       -0.91859       -1.61575
H          8.14696       -0.50130       -0.53124
H          8.33357       -0.46775       -2.32013
H          5.64133        0.97720       -3.00436
H          7.25012        1.34846       -3.68398
H          6.31032        2.64942       -2.88524
H          6.62929        4.16929        0.03110
H          3.78569        3.54839       -0.98542
H          5.24241        3.78106       -2.03018
H          4.61786        5.12412       -1.01838
H          4.01745        3.50731        1.53899
H          4.84089        5.08438        1.45971
H          5.61815        3.72068        2.31310
H          3.30599        1.98666       -1.02589
H          0.92048        0.95904       -1.29073
H          0.51270       -0.08267        0.12812
H          1.00347       -0.83843       -1.44185
46

C          1.94256       -1.20250       -1.48053
C          2.94249       -0.50530       -0.61395
C          4.01590        0.24939       -1.04364
N          4.70100        0.71430        0.02060
Si         6.18820        1.74180        0.00480
C          7.20910        1.31630        1.56510
C          6.39806        1.57960        2.83789
C          7.70207       -0.13564        1.56595
C          7.22940        1.21590       -1.51250
C          8.53719        1.99673       -1.64395
C          7.49080       -0.29208       -1.56018
C          5.68200        3.59570        0.10840
C          4.78075        4.02557       -1.05345
C          5.00583        3.98523        1.43210
C          4.06722        0.27422        1.12863
C          2.97463       -0.48740        0.76602
C          2.01574       -1.16208        1.69341
H          2.17472       -1.03769       -2.55380
H          0.92545       -0.81300       -1.26806
H          1.96812       -2.29263       -1.27249
H          4.26057        0.44381       -2.07742
H          8.10361        1.97299        1.57279
H          5.49522        0.93151        2.86878
H          6.08420        2.64104        2.89440
H          7.01731        1.36222        3.73545
H          6.85485       -0.84921        1.60029
H          8.33773       -0.31810        2.45876
H          8.32352       -0.34507        0.67242
H          6.61157        1.47429       -2.39815
H          9.24211        1.74166       -0.83406
H          8.34071        3.08720       -1.64207
H          9.03133        1.73312       -2.60414
H          8.14596       -0.61640       -0.73328
H          7.99561       -0.55845       -2.51148
H          6.53667       -0.85877       -1.51397
H          6.62929        4.16929        0.03110
H          3.78569        3.54839       -0.98542
H          5.24241        3.78106       -2.03018
H          4.61786        5.12412       -1.01838
H          4.01745        3.50731        1.53899
H          4.84089        5.08438        1.45971
H          5.61815        3.72068        2.31310
H          4.38048        0.48018        2.14252
H          2.29520       -0.96858        2.75041
H          2.02963       -2.25700        1.51183
H          0.99078       -0.77456        1.51693
46

C          1.51384       -0.53821        1.36588
C          2.75954       -0.22181        0.60099
C          3.72986        0.69415        0.95580
N          4.70100        0.71430        0.02060
Si         6.18820        1.74180        0.00480
C          7.20910        1.31630        1.56510
C          6.39806        1.57960        2.83789
C          7.70207       -0.13564        1.56595
C          7.22940        1.21590       -1.51250
C          6.49867        1.41368       -2.84074
C          8.60775        1.88191       -1.54722
C          5.68200        3.59570        0.10840
C          6.88970        4.53791        0.08292
C          4.68765        4.03305       -0.97840
C          4.36686       -0.19104       -0.92374
C          3.16589       -0.78511       -0.59202
C          2.44749       -1.83422       -1.37813
H          1.45664        0.07612        2.28907
H          1.50827       -1.61175        1.64664
H          0.62649       -0.31988        0.73558
H          3.71438        1.29480        1.85320
H          8.10361        1.97299        1.57279
H          5.49522        0.93151        2.86878
H          6.08420        2.64104        2.89440
H          7.01731        1.36222        3.73545
H          6.85485       -0.84921        1.60029
H          8.33773       -0.31810        2.45876
H          8.32352       -0.34507        0.67242
H          7.39090        0.12364       -1.39522
H          6.36025        2.48447       -3.06910
H          5.51570        0.90261       -2.82346
H          7.10378        0.97794       -3.66511
H          8.52823        2.97004       -1.71403
H          9.21114        1.45926       -2.37670
H          9.15847        1.69680       -0.60061
H          5.18153        3.71469        1.09212
H          7.38487        4.52668       -0.90559
H          7.62386        4.26937        0.86765
H          6.55795        5.58192        0.26878
H          5.14719        4.01248       -1.98096
H          4.36290        5.07960       -0.79031
H          3.77958        3.40370       -0.99809
H          4.94950       -0.40418       -1.80897
H          3.01756       -2.09172       -2.29545
H          1.44461       -1.45918       -1.67071
H          2.33055       -2.74875       -0.76023
46

C          1.94256       -1.20250       -1.48053
C          2.94249       -0.50530       -0.61395
C          4.01590        0.24939       -1.04364
N          4.70100        0.71430        0.02060
Si         6.18820        1.74180        0.00480
C          7.20910        1.31630        1.56510
C          8.48375        2.16355        1.63247
C          6.40684        1.49852        2.85906
C          7.22940        1.21590       -1.51250
C          8.53719        1.99673       -1.64395
C          7.49080       -0.29208       -1.56018
C          5.68200        3.59570        0.10840
C          4.78075        4.02557       -1.05345
C          5.00583        3.98523        1.43210
C          4.06722        0.27422        1.12863
C          2.97463       -0.48740        0.76602
C          2.01574       -1.16208        1.69341
H          2.17472       -1.03769       -2.55380
H          0.92545       -0.81300       -1.26806
H          1.96812       -2.29263       -1.27249
H          4.26057        0.44381       -2.07742
H          7.49765        0.24683        1.49853
H          8.23298        3.24405        1.70811
H          9.11519        2.00004        0.73643
H          9.08317        1.87884        2.52465
H          6.12035        2.55835        3.01013
H          7.01951        1.18352        3.73077
H          5.49523        0.86813        2.85381
H          6.61157        1.47429       -2.39815
H          9.24211        1.74166       -0.83406
H          8.34071        3.08720       -1.64207
H          9.03133        1.73312       -2.60414
H          8.14596       -0.61640       -0.73328
H          7.99561       -0.55845       -2.51148
H          6.53667       -0.85877       -1.51397
H          6.62929        4.16929        0.03110
H          3.78569        3.54839       -0.98542
H          5.24241        3.78106       -2.03018
H          4.61786        5.12412       -1.01838
H          4.01745        3.50731        1.53899
H          4.84089        5.08438        1.45971
H          5.61815        3.72068        2.31310
H          4.38048        0.48018        2.14252
H          2.29520       -0.96858        2.75041
H          2.02963       -2.25700        1.51183
H          0.99078       -0.77456        1.51693
46

C          2.39311       -1.81071        1.37502
C          3.13483       -0.76495        0.60486
C          4.34533       -0.19678        0.94879
N          4.70100        0.71430        0.02060
Si         6.18820        1.74180        0.00480
C          7.20910        1.31630        1.56510
C          7.62123       -0.15926        1.56338
C          8.45818        2.19432        1.70663
C          7.22940        1.21590       -1.51250
C          8.53719        1.99673       -1.64395
C          7.49080       -0.29208       -1.56018
C          5.68200        3.59570        0.10840
C          4.91111        3.92457        1.39079
C          6.85988        4.57304       -0.02768
C          3.73424        0.72465       -0.92191
C          2.74829       -0.18056       -0.58457
C          1.50310       -0.46705       -1.36056
H          2.95099       -2.08672        2.29456
H          2.26204       -2.71657        0.74766
H          1.39588       -1.41919        1.66582
H          4.92199       -0.45352        1.82509
H          6.56675        1.50371        2.45037
H          8.27434       -0.38306        0.69192
H          6.73103       -0.81852        1.52775
H          8.18196       -0.39878        2.49319
H          9.16677        2.02525        0.87148
H          8.98463        1.95208        2.65459
H          8.18682        3.26819        1.74721
H          6.61157        1.47429       -2.39815
H          9.24211        1.74166       -0.83406
H          8.34071        3.08720       -1.64207
H          9.03133        1.73312       -2.60414
H          8.14596       -0.61640       -0.73328
H          7.99561       -0.55845       -2.51148
H          6.53667       -0.85877       -1.51397
H          4.99908        3.76780       -0.74970
H          5.56429        3.85156        2.27989
H          4.03844        3.25412        1.51664
H          4.53545        4.96938        1.34796
H          7.54232        4.50901        0.83655
H          6.47871        5.61679       -0.06514
H          7.44638        4.40213       -0.94849
H          3.73262        1.35729       -1.79843
H          1.46427        0.15677       -2.27822
H          0.61421       -0.24286       -0.73476
H          1.48412       -1.53737       -1.65364
