
  xtb     02032211343D
 xtb: 6.4.1 (23d549d)
 24 25  0     0  0            999 V2000
   -5.9305   -1.3664    0.0218 C   0  0  0  0  0  0  0  0  0  0  0  0
   -5.4889   -0.1113    0.0138 C   0  0  0  0  0  0  0  0  0  0  0  0
   -4.1066    0.2764    0.0043 C   0  0  0  0  0  0  0  0  0  0  0  0
   -3.6058    1.5561    0.0012 C   0  0  0  0  0  0  0  0  0  0  0  0
   -2.2086    1.6128   -0.0061 C   0  0  0  0  0  0  0  0  0  0  0  0
   -1.6165    0.3715   -0.0093 C   0  0  0  0  0  0  0  0  0  0  0  0
   -0.2280    0.0582   -0.0133 C   0  0  0  0  0  0  0  0  0  0  0  0
    0.3651   -1.1836   -0.0223 C   0  0  0  0  0  0  0  0  0  0  0  0
    1.7620   -1.1364   -0.0194 C   0  0  0  0  0  0  0  0  0  0  0  0
    2.2616    0.1442   -0.0079 C   0  0  0  0  0  0  0  0  0  0  0  0
    3.6163    0.6134    0.0015 C   0  0  0  0  0  0  0  0  0  0  0  0
    4.7087   -0.1435    0.0086 C   0  0  0  0  0  0  0  0  0  0  0  0
    4.7575   -1.4712    0.0073 F   0  0  0  0  0  0  0  0  0  0  0  0
    5.9452    0.3462    0.0185 F   0  0  0  0  0  0  0  0  0  0  0  0
    0.9730    1.3146   -0.0023 S   0  0  0  0  0  0  0  0  0  0  0  0
   -2.8157   -0.8896   -0.0033 S   0  0  0  0  0  0  0  0  0  0  0  0
   -6.9808   -1.5966    0.0295 H   0  0  0  0  0  0  0  0  0  0  0  0
   -5.2485   -2.2009    0.0211 H   0  0  0  0  0  0  0  0  0  0  0  0
   -6.1876    0.7159    0.0149 H   0  0  0  0  0  0  0  0  0  0  0  0
   -4.2368    2.4274    0.0048 H   0  0  0  0  0  0  0  0  0  0  0  0
   -1.6390    2.5256   -0.0088 H   0  0  0  0  0  0  0  0  0  0  0  0
   -0.2066   -2.0947   -0.0305 H   0  0  0  0  0  0  0  0  0  0  0  0
    2.3848   -2.0117   -0.0252 H   0  0  0  0  0  0  0  0  0  0  0  0
    3.7713    1.6815    0.0049 H   0  0  0  0  0  0  0  0  0  0  0  0
  1  2  2  0  0  0  0
  2  3  1  0  0  0  0
  3  4  4  0  0  0  0
  4  5  4  0  0  0  0
  5  6  4  0  0  0  0
  6  7  1  0  0  0  0
  7  8  4  0  0  0  0
  8  9  4  0  0  0  0
  9 10  4  0  0  0  0
 10 11  1  0  0  0  0
 11 12  2  0  0  0  0
 12 13  1  0  0  0  0
 12 14  1  0  0  0  0
  7 15  1  0  0  0  0
 10 15  1  0  0  0  0
  3 16  1  0  0  0  0
  6 16  1  0  0  0  0
  1 17  1  0  0  0  0
  1 18  1  0  0  0  0
  2 19  1  0  0  0  0
  4 20  1  0  0  0  0
  5 21  1  0  0  0  0
  8 22  1  0  0  0  0
  9 23  1  0  0  0  0
 11 24  1  0  0  0  0
M  END
