
  xtb     02032211353D
 xtb: 6.4.1 (23d549d)
 25 25  0     0  0            999 V2000
   -3.8924    1.1115    0.4496 C   0  0  0  0  0  0  0  0  0  0  0  0
   -3.2810    0.0286   -0.0175 C   0  0  0  0  0  0  0  0  0  0  0  0
   -1.8464   -0.1987   -0.1037 C   0  0  0  0  0  0  0  0  0  0  0  0
   -1.3756   -1.4402   -0.5360 C   0  0  0  0  0  0  0  0  0  0  0  0
   -0.0255   -1.7031   -0.5797 C   0  0  0  0  0  0  0  0  0  0  0  0
    0.9266   -0.7431   -0.2268 C   0  0  0  0  0  0  0  0  0  0  0  0
    2.2744   -1.0888   -0.2813 N   0  0  0  0  0  0  0  0  0  0  0  0
    3.1306   -0.8800    0.8698 C   0  0  0  0  0  0  0  0  0  0  0  0
    0.4722    0.5457    0.1191 C   0  0  0  0  0  0  0  0  0  0  0  0
    1.3374    1.7106    0.3106 C   0  0  0  0  0  0  0  0  0  0  0  0
    2.4559    1.9592   -0.3585 C   0  0  0  0  0  0  0  0  0  0  0  0
   -0.8971    0.7699    0.2099 C   0  0  0  0  0  0  0  0  0  0  0  0
   -4.9665    1.1812    0.4736 H   0  0  0  0  0  0  0  0  0  0  0  0
   -3.3579    1.9663    0.8271 H   0  0  0  0  0  0  0  0  0  0  0  0
   -3.8855   -0.7977   -0.3735 H   0  0  0  0  0  0  0  0  0  0  0  0
   -2.0791   -2.2127   -0.8133 H   0  0  0  0  0  0  0  0  0  0  0  0
    0.3164   -2.6835   -0.8869 H   0  0  0  0  0  0  0  0  0  0  0  0
    2.3885   -2.0293   -0.6440 H   0  0  0  0  0  0  0  0  0  0  0  0
    3.0295    0.1407    1.2279 H   0  0  0  0  0  0  0  0  0  0  0  0
    4.1645   -1.0452    0.5675 H   0  0  0  0  0  0  0  0  0  0  0  0
    2.8925   -1.5642    1.6948 H   0  0  0  0  0  0  0  0  0  0  0  0
    0.9513    2.4555    0.9975 H   0  0  0  0  0  0  0  0  0  0  0  0
    2.8507    1.2633   -1.0785 H   0  0  0  0  0  0  0  0  0  0  0  0
    3.0082    2.8725   -0.2133 H   0  0  0  0  0  0  0  0  0  0  0  0
   -1.2265    1.7568    0.4993 H   0  0  0  0  0  0  0  0  0  0  0  0
  1  2  2  0  0  0  0
  2  3  1  0  0  0  0
  3  4  4  0  0  0  0
  4  5  4  0  0  0  0
  5  6  4  0  0  0  0
  6  7  1  0  0  0  0
  7  8  1  0  0  0  0
  6  9  4  0  0  0  0
  9 10  1  0  0  0  0
 10 11  2  0  0  0  0
  3 12  4  0  0  0  0
  9 12  4  0  0  0  0
  1 13  1  0  0  0  0
  1 14  1  0  0  0  0
  2 15  1  0  0  0  0
  4 16  1  0  0  0  0
  5 17  1  0  0  0  0
  7 18  1  0  0  0  0
  8 19  1  0  0  0  0
  8 20  1  0  0  0  0
  8 21  1  0  0  0  0
 10 22  1  0  0  0  0
 11 23  1  0  0  0  0
 11 24  1  0  0  0  0
 12 25  1  0  0  0  0
M  END
