
 OpenBabel08112216353D

 23 23  0  0  0  0  0  0  0  0999 V2000
    1.1915   -0.4798    0.0843 C   0  0  0  0  0  0  0  0  0  0  0  0
    2.3703    0.1296   -0.0791 C   0  0  0  0  0  0  0  0  0  0  0  0
    3.1503    0.0117   -1.3185 C   0  0  0  0  0  0  0  0  0  0  0  0
    2.8178    0.8761   -2.3740 C   0  0  0  0  0  0  0  0  0  0  0  0
    3.5398    0.8558   -3.5669 C   0  0  0  0  0  0  0  0  0  0  0  0
    4.6038   -0.0368   -3.7321 C   0  0  0  0  0  0  0  0  0  0  0  0
    5.4150   -0.0635   -5.0044 C   0  0  0  0  0  0  0  0  0  0  0  0
    4.9647    0.8007   -5.9564 F   0  0  0  0  0  0  0  0  0  0  0  0
    6.7205    0.2626   -4.7943 F   0  0  0  0  0  0  0  0  0  0  0  0
    5.4257   -1.2919   -5.5910 F   0  0  0  0  0  0  0  0  0  0  0  0
    4.9208   -0.9179   -2.6819 C   0  0  0  0  0  0  0  0  0  0  0  0
    4.2151   -0.9027   -1.4652 C   0  0  0  0  0  0  0  0  0  0  0  0
    4.5394   -1.8704   -0.3988 C   0  0  0  0  0  0  0  0  0  0  0  0
    5.7483   -2.3556   -0.0971 C   0  0  0  0  0  0  0  0  0  0  0  0
    6.8528   -1.9760   -0.7724 F   0  0  0  0  0  0  0  0  0  0  0  0
    5.8638   -3.2411    0.9155 F   0  0  0  0  0  0  0  0  0  0  0  0
    0.6389   -0.3724    1.0123 H   0  0  0  0  0  0  0  0  0  0  0  0
    0.7526   -1.1038   -0.6896 H   0  0  0  0  0  0  0  0  0  0  0  0
    2.8005    0.7453    0.7056 H   0  0  0  0  0  0  0  0  0  0  0  0
    1.9947    1.5809   -2.2652 H   0  0  0  0  0  0  0  0  0  0  0  0
    3.2662    1.5431   -4.3666 H   0  0  0  0  0  0  0  0  0  0  0  0
    5.7353   -1.6265   -2.8348 H   0  0  0  0  0  0  0  0  0  0  0  0
    3.7042   -2.2139    0.2051 H   0  0  0  0  0  0  0  0  0  0  0  0
  1  2  2  0  0  0  0
  1 17  1  0  0  0  0
  1 18  1  0  0  0  0
  2  3  1  0  0  0  0
  2 19  1  0  0  0  0
  3  4  1  0  0  0  0
  3 12  2  0  0  0  0
  4  5  2  0  0  0  0
  4 20  1  0  0  0  0
  5  6  1  0  0  0  0
  5 21  1  0  0  0  0
  6  7  1  0  0  0  0
  6 11  2  0  0  0  0
  7  8  1  0  0  0  0
  7  9  1  0  0  0  0
  7 10  1  0  0  0  0
 11 12  1  0  0  0  0
 11 22  1  0  0  0  0
 12 13  1  0  0  0  0
 13 14  2  0  0  0  0
 13 23  1  0  0  0  0
 14 15  1  0  0  0  0
 14 16  1  0  0  0  0
M  END
