19

C         -2.68680        0.25550       -0.04360
C         -1.24960       -0.16920       -0.03070
S          0.00640        0.93190        0.04650
C          1.24640       -0.18950        0.05180
C          2.68990        0.21160        0.08910
C          0.70960       -1.49240       -0.01950
N          1.55350       -2.65460       -0.09340
O          2.32147       -2.89622        0.78748
O          1.65241       -3.35475       -1.19924
C         -0.73120       -1.48180       -0.04620
N         -1.59070       -2.63570       -0.04820
O         -2.36191       -2.80797       -0.94259
O         -1.69200       -3.41289        1.00433
H         -2.76420        1.36260       -0.00820
H         -3.21160       -0.15960        0.84200
H         -3.17790       -0.09690       -0.97440
H          2.78440        1.31740        0.12080
H          3.20730       -0.15750       -0.82100
H          3.17620       -0.20450        0.99580
19

C         -2.68680        0.25550       -0.04360
C         -1.24960       -0.16920       -0.03070
S          0.00640        0.93190        0.04650
C          1.24640       -0.18950        0.05180
C          2.68990        0.21160        0.08910
C          0.70960       -1.49240       -0.01950
N          1.55350       -2.65460       -0.09340
O          2.32540       -2.78003       -0.99481
O          1.36038       -3.68715        0.69363
C         -0.73120       -1.48180       -0.04620
N         -1.59070       -2.63570       -0.04820
O         -2.36191       -2.80797       -0.94259
O         -1.69200       -3.41289        1.00433
H         -2.76420        1.36260       -0.00820
H         -3.21160       -0.15960        0.84200
H         -3.17790       -0.09690       -0.97440
H          2.78440        1.31740        0.12080
H          3.20730       -0.15750       -0.82100
H          3.17620       -0.20450        0.99580
19

C         -2.68680        0.25550       -0.04360
C         -1.24960       -0.16920       -0.03070
S          0.00640        0.93190        0.04650
C          1.24640       -0.18950        0.05180
C          2.68990        0.21160        0.08910
C          0.70960       -1.49240       -0.01950
N          1.55350       -2.65460       -0.09340
O          2.74090       -2.53550       -0.09575
O          1.05788       -3.83957       -0.36375
C         -0.73120       -1.48180       -0.04620
N         -1.59070       -2.63570       -0.04820
O         -2.36191       -2.80797       -0.94259
O         -1.69200       -3.41289        1.00433
H         -2.76420        1.36260       -0.00820
H         -3.21160       -0.15960        0.84200
H         -3.17790       -0.09690       -0.97440
H          2.78440        1.31740        0.12080
H          3.20730       -0.15750       -0.82100
H          3.17620       -0.20450        0.99580
19

C         -2.68680        0.25550       -0.04360
C         -1.24960       -0.16920       -0.03070
S          0.00640        0.93190        0.04650
C          1.24640       -0.18950        0.05180
C          2.68990        0.21160        0.08910
C          0.70960       -1.49240       -0.01950
N          1.55350       -2.65460       -0.09340
O          2.32540       -2.78003       -0.99481
O          1.36038       -3.68715        0.69363
C         -0.73120       -1.48180       -0.04620
N         -1.59070       -2.63570       -0.04820
O         -2.36377       -2.80969        0.84425
O         -1.41950       -3.61255       -0.90759
H         -2.76420        1.36260       -0.00820
H         -3.21160       -0.15960        0.84200
H         -3.17790       -0.09690       -0.97440
H          2.78440        1.31740        0.12080
H          3.20730       -0.15750       -0.82100
H          3.17620       -0.20450        0.99580
19

C         -2.68680        0.25550       -0.04360
C         -1.24960       -0.16920       -0.03070
S          0.00640        0.93190        0.04650
C          1.24640       -0.18950        0.05180
C          2.68990        0.21160        0.08910
C          0.70960       -1.49240       -0.01950
N          1.55350       -2.65460       -0.09340
O          2.32147       -2.89622        0.78748
O          1.65241       -3.35475       -1.19924
C         -0.73120       -1.48180       -0.04620
N         -1.59070       -2.63570       -0.04820
O         -2.77646       -2.50076       -0.03660
O         -1.11133       -3.84389        0.13227
H         -2.76420        1.36260       -0.00820
H         -3.21160       -0.15960        0.84200
H         -3.17790       -0.09690       -0.97440
H          2.78440        1.31740        0.12080
H          3.20730       -0.15750       -0.82100
H          3.17620       -0.20450        0.99580
19

C         -2.68680        0.25550       -0.04360
C         -1.24960       -0.16920       -0.03070
S          0.00640        0.93190        0.04650
C          1.24640       -0.18950        0.05180
C          2.68990        0.21160        0.08910
C          0.70960       -1.49240       -0.01950
N          1.55350       -2.65460       -0.09340
O          2.32147       -2.89622        0.78748
O          1.65241       -3.35475       -1.19924
C         -0.73120       -1.48180       -0.04620
N         -1.59070       -2.63570       -0.04820
O         -2.36377       -2.80969        0.84425
O         -1.41950       -3.61255       -0.90759
H         -2.76420        1.36260       -0.00820
H         -3.21160       -0.15960        0.84200
H         -3.17790       -0.09690       -0.97440
H          2.78440        1.31740        0.12080
H          3.20730       -0.15750       -0.82100
H          3.17620       -0.20450        0.99580
19

C         -2.68680        0.25550       -0.04360
C         -1.24960       -0.16920       -0.03070
S          0.00640        0.93190        0.04650
C          1.24640       -0.18950        0.05180
C          2.68990        0.21160        0.08910
C          0.70960       -1.49240       -0.01950
N          1.55350       -2.65460       -0.09340
O          2.32540       -2.78003       -0.99481
O          1.36038       -3.68715        0.69363
C         -0.73120       -1.48180       -0.04620
N         -1.59070       -2.63570       -0.04820
O         -2.77646       -2.50076       -0.03660
O         -1.11133       -3.84389        0.13227
H         -2.76420        1.36260       -0.00820
H         -3.21160       -0.15960        0.84200
H         -3.17790       -0.09690       -0.97440
H          2.78440        1.31740        0.12080
H          3.20730       -0.15750       -0.82100
H          3.17620       -0.20450        0.99580
19

C         -2.68680        0.25550       -0.04360
C         -1.24960       -0.16920       -0.03070
S          0.00640        0.93190        0.04650
C          1.24640       -0.18950        0.05180
C          2.68990        0.21160        0.08910
C          0.70960       -1.49240       -0.01950
N          1.55350       -2.65460       -0.09340
O          2.74090       -2.53550       -0.09575
O          1.05788       -3.83957       -0.36375
C         -0.73120       -1.48180       -0.04620
N         -1.59070       -2.63570       -0.04820
O         -2.36377       -2.80969        0.84425
O         -1.41950       -3.61255       -0.90759
H         -2.76420        1.36260       -0.00820
H         -3.21160       -0.15960        0.84200
H         -3.17790       -0.09690       -0.97440
H          2.78440        1.31740        0.12080
H          3.20730       -0.15750       -0.82100
H          3.17620       -0.20450        0.99580
19

C         -2.68680        0.25550       -0.04360
C         -1.24960       -0.16920       -0.03070
S          0.00640        0.93190        0.04650
C          1.24640       -0.18950        0.05180
C          2.68990        0.21160        0.08910
C          0.70960       -1.49240       -0.01950
N          1.55350       -2.65460       -0.09340
O          2.74090       -2.53550       -0.09575
O          1.05788       -3.83957       -0.36375
C         -0.73120       -1.48180       -0.04620
N         -1.59070       -2.63570       -0.04820
O         -2.77646       -2.50076       -0.03660
O         -1.11133       -3.84389        0.13227
H         -2.76420        1.36260       -0.00820
H         -3.21160       -0.15960        0.84200
H         -3.17790       -0.09690       -0.97440
H          2.78440        1.31740        0.12080
H          3.20730       -0.15750       -0.82100
H          3.17620       -0.20450        0.99580
