
  xtb     02032211353D
 xtb: 6.4.1 (23d549d)
 26 26  0     0  0            999 V2000
   -2.1733   -3.1329   -0.2147 C   0  0  0  0  0  0  0  0  0  0  0  0
   -2.2131   -1.8268   -0.4494 C   0  0  0  0  0  0  0  0  0  0  0  0
   -1.1008   -0.9105   -0.2205 C   0  0  0  0  0  0  0  0  0  0  0  0
    0.2185   -1.3598   -0.2209 C   0  0  0  0  0  0  0  0  0  0  0  0
    1.2921   -0.5079   -0.0114 C   0  0  0  0  0  0  0  0  0  0  0  0
    2.6542   -1.1200   -0.1075 C   0  0  0  0  0  0  0  0  0  0  0  0
    2.8954   -2.2253    0.2890 O   0  0  0  0  0  0  0  0  0  0  0  0
    3.6025   -0.3786   -0.7076 O   0  0  0  0  0  0  0  0  0  0  0  0
    1.0734    0.8541    0.2526 C   0  0  0  0  0  0  0  0  0  0  0  0
    2.1691    1.7770    0.5620 C   0  0  0  0  0  0  0  0  0  0  0  0
    2.1974    3.0536    0.2012 C   0  0  0  0  0  0  0  0  0  0  0  0
   -0.2442    1.3026    0.2753 C   0  0  0  0  0  0  0  0  0  0  0  0
   -1.3177    0.4561    0.0290 C   0  0  0  0  0  0  0  0  0  0  0  0
   -2.6907    1.0551    0.0346 C   0  0  0  0  0  0  0  0  0  0  0  0
   -3.5087    0.8801   -0.8226 O   0  0  0  0  0  0  0  0  0  0  0  0
   -2.9527    1.8592    1.0822 O   0  0  0  0  0  0  0  0  0  0  0  0
   -3.0299   -3.7568   -0.4013 H   0  0  0  0  0  0  0  0  0  0  0  0
   -1.3037   -3.6269    0.1860 H   0  0  0  0  0  0  0  0  0  0  0  0
   -3.1210   -1.3725   -0.8179 H   0  0  0  0  0  0  0  0  0  0  0  0
    0.4339   -2.3979   -0.4201 H   0  0  0  0  0  0  0  0  0  0  0  0
    3.2773    0.4872   -0.9927 H   0  0  0  0  0  0  0  0  0  0  0  0
    2.9886    1.3606    1.1353 H   0  0  0  0  0  0  0  0  0  0  0  0
    1.4153    3.5002   -0.3905 H   0  0  0  0  0  0  0  0  0  0  0  0
    3.0174    3.6961    0.4707 H   0  0  0  0  0  0  0  0  0  0  0  0
   -0.4249    2.3495    0.4808 H   0  0  0  0  0  0  0  0  0  0  0  0
   -2.2256    1.8923    1.7185 H   0  0  0  0  0  0  0  0  0  0  0  0
  1  2  2  0  0  0  0
  2  3  1  0  0  0  0
  3  4  4  0  0  0  0
  4  5  4  0  0  0  0
  5  6  1  0  0  0  0
  6  7  2  0  0  0  0
  6  8  1  0  0  0  0
  5  9  4  0  0  0  0
  9 10  1  0  0  0  0
 10 11  2  0  0  0  0
  9 12  4  0  0  0  0
  3 13  4  0  0  0  0
 12 13  4  0  0  0  0
 13 14  1  0  0  0  0
 14 15  2  0  0  0  0
 14 16  1  0  0  0  0
  1 17  1  0  0  0  0
  1 18  1  0  0  0  0
  2 19  1  0  0  0  0
  4 20  1  0  0  0  0
  8 21  1  0  0  0  0
 10 22  1  0  0  0  0
 11 23  1  0  0  0  0
 11 24  1  0  0  0  0
 12 25  1  0  0  0  0
 16 26  1  0  0  0  0
M  END
