
 OpenBabel02012213413D

 40 43  0  0  0  0  0  0  0  0999 V2000
    1.1835    0.1074    0.1872 C   0  0  0  0  0  0  0  0  0  0  0  0
    2.5702   -0.0354   -0.1085 O   0  0  0  0  0  0  0  0  0  0  0  0
    3.2007    1.1004   -0.5365 C   0  0  0  0  0  0  0  0  0  0  0  0
    2.8559    2.4003   -0.1610 C   0  0  0  0  0  0  0  0  0  0  0  0
    3.5465    3.5176   -0.6718 C   0  0  0  0  0  0  0  0  0  0  0  0
    3.1597    4.8658   -0.2984 N   0  0  0  0  0  0  0  0  0  0  0  0
    4.2573    5.7565    0.0395 C   0  0  0  0  0  0  0  0  0  0  0  0
    5.4432    5.7628   -0.7260 C   0  0  0  0  0  0  0  0  0  0  0  0
    5.6613    4.6428   -2.0999 S   0  0  0  0  0  0  0  0  0  0  0  0
    6.4887    6.6446   -0.4142 C   0  0  0  0  0  0  0  0  0  0  0  0
    6.3767    7.5186    0.6659 C   0  0  0  0  0  0  0  0  0  0  0  0
    5.2393    7.4854    1.4650 C   0  0  0  0  0  0  0  0  0  0  0  0
    4.2067    6.5899    1.1731 C   0  0  0  0  0  0  0  0  0  0  0  0
    1.7793    5.3314   -0.3957 C   0  0  0  0  0  0  0  0  0  0  0  0
    0.7463    4.5176   -0.9032 C   0  0  0  0  0  0  0  0  0  0  0  0
   -0.5940    4.9359   -0.9490 C   0  0  0  0  0  0  0  0  0  0  0  0
   -0.9534    6.2109   -0.5220 C   0  0  0  0  0  0  0  0  0  0  0  0
   -2.3766    6.6778   -0.5503 C   0  0  0  0  0  0  0  0  0  0  0  0
    0.0545    7.0682   -0.0912 C   0  0  0  0  0  0  0  0  0  0  0  0
    1.3914    6.6430   -0.0590 C   0  0  0  0  0  0  0  0  0  0  0  0
    4.6686    3.2884   -1.4945 C   0  0  0  0  0  0  0  0  0  0  0  0
    5.0323    1.9831   -1.8457 C   0  0  0  0  0  0  0  0  0  0  0  0
    4.3002    0.8952   -1.3690 C   0  0  0  0  0  0  0  0  0  0  0  0
    0.7837   -0.8891    0.3973 H   0  0  0  0  0  0  0  0  0  0  0  0
    0.6382    0.5148   -0.6711 H   0  0  0  0  0  0  0  0  0  0  0  0
    1.0243    0.7183    1.0804 H   0  0  0  0  0  0  0  0  0  0  0  0
    2.0604    2.5694    0.5566 H   0  0  0  0  0  0  0  0  0  0  0  0
    7.3998    6.6504   -1.0082 H   0  0  0  0  0  0  0  0  0  0  0  0
    7.1849    8.2088    0.8945 H   0  0  0  0  0  0  0  0  0  0  0  0
    5.1544    8.1507    2.3207 H   0  0  0  0  0  0  0  0  0  0  0  0
    3.3551    6.5445    1.8478 H   0  0  0  0  0  0  0  0  0  0  0  0
    0.9500    3.5320   -1.3085 H   0  0  0  0  0  0  0  0  0  0  0  0
   -1.3467    4.2515   -1.3340 H   0  0  0  0  0  0  0  0  0  0  0  0
   -3.0446    5.9083   -0.9499 H   0  0  0  0  0  0  0  0  0  0  0  0
   -2.4684    7.5648   -1.1854 H   0  0  0  0  0  0  0  0  0  0  0  0
   -2.7140    6.9237    0.4620 H   0  0  0  0  0  0  0  0  0  0  0  0
   -0.1834    8.0850    0.2144 H   0  0  0  0  0  0  0  0  0  0  0  0
    2.1126    7.3999    0.2239 H   0  0  0  0  0  0  0  0  0  0  0  0
    5.8955    1.8023   -2.4834 H   0  0  0  0  0  0  0  0  0  0  0  0
    4.5896   -0.1154   -1.6453 H   0  0  0  0  0  0  0  0  0  0  0  0
  1  2  1  0  0  0  0
  1 24  1  0  0  0  0
  1 25  1  0  0  0  0
  1 26  1  0  0  0  0
  2  3  1  0  0  0  0
  3  4  1  0  0  0  0
  3 23  2  0  0  0  0
  4  5  2  0  0  0  0
  4 27  1  0  0  0  0
  5  6  1  0  0  0  0
  5 21  1  0  0  0  0
  6  7  1  0  0  0  0
  6 14  1  0  0  0  0
  7  8  1  0  0  0  0
  7 13  2  0  0  0  0
  8  9  1  0  0  0  0
  8 10  2  0  0  0  0
  9 21  1  0  0  0  0
 10 11  1  0  0  0  0
 10 28  1  0  0  0  0
 11 12  2  0  0  0  0
 11 29  1  0  0  0  0
 12 13  1  0  0  0  0
 12 30  1  0  0  0  0
 13 31  1  0  0  0  0
 14 15  1  0  0  0  0
 14 20  2  0  0  0  0
 15 16  2  0  0  0  0
 15 32  1  0  0  0  0
 16 17  1  0  0  0  0
 16 33  1  0  0  0  0
 17 18  1  0  0  0  0
 17 19  2  0  0  0  0
 18 34  1  0  0  0  0
 18 35  1  0  0  0  0
 18 36  1  0  0  0  0
 19 20  1  0  0  0  0
 19 37  1  0  0  0  0
 20 38  1  0  0  0  0
 21 22  2  0  0  0  0
 22 23  1  0  0  0  0
 22 39  1  0  0  0  0
 23 40  1  0  0  0  0
M  END
