
  xtb     02012213413D
 xtb: 6.4.1 (23d549d)
 40 43  0     0  0            999 V2000
    2.7424   -1.1754   -0.6435 c   0  0  0  0  0  0  0  0  0  0  0  0
    2.4536    0.1321   -0.2120 o   0  0  0  0  0  0  0  0  0  0  0  0
    3.1524    1.1658   -0.7560 c   0  0  0  0  0  0  0  0  0  0  0  0
    2.7973    2.4340   -0.2971 c   0  0  0  0  0  0  0  0  0  0  0  0
    3.4078    3.5710   -0.8029 c   0  0  0  0  0  0  0  0  0  0  0  0
    3.0416    4.8568   -0.3667 n   0  0  0  0  0  0  0  0  0  0  0  0
    4.1237    5.6611    0.0386 c   0  0  0  0  0  0  0  0  0  0  0  0
    5.2529    5.7684   -0.7723 c   0  0  0  0  0  0  0  0  0  0  0  0
    5.3124    4.8624   -2.2955 s   0  0  0  0  0  0  0  0  0  0  0  0
    6.3243    6.5628   -0.3966 c   0  0  0  0  0  0  0  0  0  0  0  0
    6.2825    7.2510    0.8018 c   0  0  0  0  0  0  0  0  0  0  0  0
    5.1876    7.1115    1.6400 c   0  0  0  0  0  0  0  0  0  0  0  0
    4.1226    6.3111    1.2697 c   0  0  0  0  0  0  0  0  0  0  0  0
    1.7367    5.3390   -0.4428 c   0  0  0  0  0  0  0  0  0  0  0  0
    0.6968    4.5435   -0.9263 c   0  0  0  0  0  0  0  0  0  0  0  0
   -0.5900    5.0378   -1.0156 c   0  0  0  0  0  0  0  0  0  0  0  0
   -0.8952    6.3388   -0.6448 c   0  0  0  0  0  0  0  0  0  0  0  0
   -2.2922    6.8755   -0.7265 c   0  0  0  0  0  0  0  0  0  0  0  0
    0.1505    7.1454   -0.2137 c   0  0  0  0  0  0  0  0  0  0  0  0
    1.4406    6.6660   -0.1197 c   0  0  0  0  0  0  0  0  0  0  0  0
    4.4528    3.4225   -1.7170 c   0  0  0  0  0  0  0  0  0  0  0  0
    4.8218    2.1660   -2.1587 c   0  0  0  0  0  0  0  0  0  0  0  0
    4.1638    1.0369   -1.7025 c   0  0  0  0  0  0  0  0  0  0  0  0
    2.0610   -1.8230   -0.0943 h   0  0  0  0  0  0  0  0  0  0  0  0
    3.7745   -1.4574   -0.4123 h   0  0  0  0  0  0  0  0  0  0  0  0
    2.5649   -1.2926   -1.7176 h   0  0  0  0  0  0  0  0  0  0  0  0
    2.0284    2.5135    0.4546 h   0  0  0  0  0  0  0  0  0  0  0  0
    7.1773    6.6402   -1.0530 h   0  0  0  0  0  0  0  0  0  0  0  0
    7.1100    7.8818    1.0880 h   0  0  0  0  0  0  0  0  0  0  0  0
    5.1638    7.6242    2.5898 h   0  0  0  0  0  0  0  0  0  0  0  0
    3.2757    6.1864    1.9277 h   0  0  0  0  0  0  0  0  0  0  0  0
    0.8911    3.5367   -1.2594 h   0  0  0  0  0  0  0  0  0  0  0  0
   -1.3713    4.3912   -1.3895 h   0  0  0  0  0  0  0  0  0  0  0  0
   -2.9844    6.1061   -1.0593 h   0  0  0  0  0  0  0  0  0  0  0  0
   -2.3392    7.7101   -1.4256 h   0  0  0  0  0  0  0  0  0  0  0  0
   -2.6185    7.2394    0.2473 h   0  0  0  0  0  0  0  0  0  0  0  0
   -0.0460    8.1755    0.0485 h   0  0  0  0  0  0  0  0  0  0  0  0
    2.2260    7.3401    0.1840 h   0  0  0  0  0  0  0  0  0  0  0  0
    5.6220    2.0735   -2.8763 h   0  0  0  0  0  0  0  0  0  0  0  0
    4.4604    0.0719   -2.0792 h   0  0  0  0  0  0  0  0  0  0  0  0
  1  2  1  0  0  0  0
  2  3  1  0  0  0  0
  3  4  4  0  0  0  0
  4  5  4  0  0  0  0
  5  6  1  0  0  0  0
  6  7  1  0  0  0  0
  7  8  4  0  0  0  0
  8  9  1  0  0  0  0
  8 10  4  0  0  0  0
 10 11  4  0  0  0  0
 11 12  4  0  0  0  0
  7 13  4  0  0  0  0
 12 13  4  0  0  0  0
  6 14  1  0  0  0  0
 14 15  4  0  0  0  0
 15 16  4  0  0  0  0
 16 17  4  0  0  0  0
 17 18  1  0  0  0  0
 17 19  4  0  0  0  0
 14 20  4  0  0  0  0
 19 20  4  0  0  0  0
  5 21  4  0  0  0  0
  9 21  1  0  0  0  0
 21 22  4  0  0  0  0
  3 23  4  0  0  0  0
 22 23  4  0  0  0  0
  1 24  1  0  0  0  0
  1 25  1  0  0  0  0
  1 26  1  0  0  0  0
  4 27  1  0  0  0  0
 10 28  1  0  0  0  0
 11 29  1  0  0  0  0
 12 30  1  0  0  0  0
 13 31  1  0  0  0  0
 15 32  1  0  0  0  0
 16 33  1  0  0  0  0
 18 34  1  0  0  0  0
 18 35  1  0  0  0  0
 18 36  1  0  0  0  0
 19 37  1  0  0  0  0
 20 38  1  0  0  0  0
 22 39  1  0  0  0  0
 23 40  1  0  0  0  0
M  END
