
  xtb     02032210493D
 xtb: 6.4.1 (23d549d)
 35 36  0     0  0            999 V2000
    4.7085    2.2263    2.1228 c   0  0  0  0  0  0  0  0  0  0  0  0
    4.4389    3.5702    1.4487 c   0  0  0  0  0  0  0  0  0  0  0  0
    5.7304    4.1526    0.8745 c   0  0  0  0  0  0  0  0  0  0  0  0
    3.5930    3.3874    0.2816 o   0  0  0  0  0  0  0  0  0  0  0  0
    2.3693    2.8805    0.4027 c   0  0  0  0  0  0  0  0  0  0  0  0
    1.7555    2.8199   -0.8404 n   0  0  0  0  0  0  0  0  0  0  0  0
    2.2998    3.2448   -2.0444 c   0  0  0  0  0  0  0  0  0  0  0  0
    1.4233    3.0453   -3.0526 c   0  0  0  0  0  0  0  0  0  0  0  0
    0.4835    2.3307   -1.0985 c   0  0  0  0  0  0  0  0  0  0  0  0
    0.2460    2.4592   -2.4848 c   0  0  0  0  0  0  0  0  0  0  0  0
   -0.9591    2.0432   -3.0333 c   0  0  0  0  0  0  0  0  0  0  0  0
   -1.9244    1.4974   -2.1934 c   0  0  0  0  0  0  0  0  0  0  0  0
   -3.2172    1.0292   -2.6686 c   0  0  0  0  0  0  0  0  0  0  0  0
   -3.6911    1.0237   -3.9055 c   0  0  0  0  0  0  0  0  0  0  0  0
   -3.0964    1.4484   -5.0155 f   0  0  0  0  0  0  0  0  0  0  0  0
   -4.9026    0.5623   -4.2188 f   0  0  0  0  0  0  0  0  0  0  0  0
   -1.6623    1.3806   -0.8162 c   0  0  0  0  0  0  0  0  0  0  0  0
   -0.4723    1.7889   -0.2531 c   0  0  0  0  0  0  0  0  0  0  0  0
    1.8330    2.5160    1.4160 o   0  0  0  0  0  0  0  0  0  0  0  0
    3.7864    4.5550    2.4171 c   0  0  0  0  0  0  0  0  0  0  0  0
    5.1239    1.5229    1.4041 h   0  0  0  0  0  0  0  0  0  0  0  0
    3.7890    1.8133    2.5282 h   0  0  0  0  0  0  0  0  0  0  0  0
    5.4196    2.3631    2.9324 h   0  0  0  0  0  0  0  0  0  0  0  0
    6.1683    3.4592    0.1611 h   0  0  0  0  0  0  0  0  0  0  0  0
    6.4421    4.3342    1.6739 h   0  0  0  0  0  0  0  0  0  0  0  0
    5.5237    5.0898    0.3645 h   0  0  0  0  0  0  0  0  0  0  0  0
    3.2875    3.6604   -2.0614 h   0  0  0  0  0  0  0  0  0  0  0  0
    1.5733    3.2796   -4.0876 h   0  0  0  0  0  0  0  0  0  0  0  0
   -1.1267    2.1480   -4.0921 h   0  0  0  0  0  0  0  0  0  0  0  0
   -3.8886    0.6286   -1.9227 h   0  0  0  0  0  0  0  0  0  0  0  0
   -2.4227    0.9545   -0.1790 h   0  0  0  0  0  0  0  0  0  0  0  0
   -0.2882    1.6922    0.8037 h   0  0  0  0  0  0  0  0  0  0  0  0
    4.4658    4.7615    3.2390 h   0  0  0  0  0  0  0  0  0  0  0  0
    2.8658    4.1393    2.8176 h   0  0  0  0  0  0  0  0  0  0  0  0
    3.5585    5.4879    1.9055 h   0  0  0  0  0  0  0  0  0  0  0  0
  1  2  1  0  0  0  0
  2  3  1  0  0  0  0
  2  4  1  0  0  0  0
  4  5  1  0  0  0  0
  5  6  1  0  0  0  0
  6  7  1  0  0  0  0
  7  8  2  0  0  0  0
  6  9  1  0  0  0  0
  8 10  1  0  0  0  0
  9 10  4  0  0  0  0
 10 11  4  0  0  0  0
 11 12  4  0  0  0  0
 12 13  1  0  0  0  0
 13 14  2  0  0  0  0
 14 15  1  0  0  0  0
 14 16  1  0  0  0  0
 12 17  4  0  0  0  0
  9 18  4  0  0  0  0
 17 18  4  0  0  0  0
  5 19  2  0  0  0  0
  2 20  1  0  0  0  0
  1 21  1  0  0  0  0
  1 22  1  0  0  0  0
  1 23  1  0  0  0  0
  3 24  1  0  0  0  0
  3 25  1  0  0  0  0
  3 26  1  0  0  0  0
  7 27  1  0  0  0  0
  8 28  1  0  0  0  0
 11 29  1  0  0  0  0
 13 30  1  0  0  0  0
 17 31  1  0  0  0  0
 18 32  1  0  0  0  0
 20 33  1  0  0  0  0
 20 34  1  0  0  0  0
 20 35  1  0  0  0  0
M  END
