
 OpenBabel02032211233D

 21 21  0  0  0  0  0  0  0  0999 V2000
    1.2135   -0.5927    0.6351 C   0  0  0  0  0  0  0  0  0  0  0  0
    2.2298    0.0304    0.0236 C   0  0  0  0  0  0  0  0  0  0  0  0
    3.0217    1.1103    0.6247 C   0  0  0  0  0  0  0  0  0  0  0  0
    4.0530    1.7006   -0.0861 C   0  0  0  0  0  0  0  0  0  0  0  0
    4.7616    2.7718    0.4755 C   0  0  0  0  0  0  0  0  0  0  0  0
    5.8414    3.4301   -0.3298 C   0  0  0  0  0  0  0  0  0  0  0  0
    4.4088    3.1923    1.7611 C   0  0  0  0  0  0  0  0  0  0  0  0
    5.0822    4.3102    2.4419 C   0  0  0  0  0  0  0  0  0  0  0  0
    4.7867    4.7600    3.6696 C   0  0  0  0  0  0  0  0  0  0  0  0
    3.4079    2.5775    2.4362 N   0  0  0  0  0  0  0  0  0  0  0  0
    2.7072    1.5369    1.8646 N   0  0  0  0  0  0  0  0  0  0  0  0
    0.6561   -1.3736    0.1289 H   0  0  0  0  0  0  0  0  0  0  0  0
    0.9144   -0.3411    1.6486 H   0  0  0  0  0  0  0  0  0  0  0  0
    2.4892   -0.2551   -0.9915 H   0  0  0  0  0  0  0  0  0  0  0  0
    4.2991    1.3447   -1.0815 H   0  0  0  0  0  0  0  0  0  0  0  0
    5.9568    2.9553   -1.3099 H   0  0  0  0  0  0  0  0  0  0  0  0
    6.8038    3.3576    0.1855 H   0  0  0  0  0  0  0  0  0  0  0  0
    5.5913    4.4812   -0.5049 H   0  0  0  0  0  0  0  0  0  0  0  0
    5.8778    4.8082    1.8987 H   0  0  0  0  0  0  0  0  0  0  0  0
    4.0035    4.3161    4.2770 H   0  0  0  0  0  0  0  0  0  0  0  0
    5.3331    5.5964    4.0947 H   0  0  0  0  0  0  0  0  0  0  0  0
  1  2  2  0  0  0  0
  1 12  1  0  0  0  0
  1 13  1  0  0  0  0
  2  3  1  0  0  0  0
  2 14  1  0  0  0  0
  3  4  1  0  0  0  0
  3 11  2  0  0  0  0
  4  5  2  0  0  0  0
  4 15  1  0  0  0  0
  5  6  1  0  0  0  0
  5  7  1  0  0  0  0
  6 16  1  0  0  0  0
  6 17  1  0  0  0  0
  6 18  1  0  0  0  0
  7  8  1  0  0  0  0
  7 10  2  0  0  0  0
  8  9  2  0  0  0  0
  8 19  1  0  0  0  0
  9 20  1  0  0  0  0
  9 21  1  0  0  0  0
 10 11  1  0  0  0  0
M  END
