36

F          0.73609        1.22698       -0.01096
C          2.00083        0.77377        0.19295
F          2.16587       -0.29961        1.00428
C          3.02216        1.41286       -0.40353
C          4.47692        1.08479       -0.30571
C          5.41691        1.32224       -1.32945
C          6.76144        0.97753       -1.15665
C          7.20680        0.37720        0.03320
N          8.59540       -0.00040        0.20240
C          9.31520       -0.04450        1.36190
C         10.61370       -0.45130        1.11860
C         11.55820       -0.58800        2.13460
C         11.15230       -0.30940        3.44880
C          9.82690        0.08890        3.71700
C          8.89240        0.22190        2.67340
C          9.47220       -0.38510       -0.77160
C         10.71400       -0.66400       -0.23330
C         11.79450       -1.07090       -1.01530
C         11.59690       -1.18200       -2.40060
C         10.34170       -0.88180       -2.96830
C          9.26690       -0.47600       -2.15770
C          6.26943        0.14537        1.05341
C          4.92910        0.49874        0.88780
H          2.75426        2.26912       -1.01775
H          5.14556        1.76740       -2.27024
H          7.44484        1.15397       -1.97512
H         12.57140       -0.90400        1.92330
H         11.85940       -0.40980        4.26220
H          9.52410        0.28910        4.73690
H          7.87980        0.50950        2.90940
H         12.75860       -1.28840       -0.57510
H         12.41470       -1.49060       -3.03800
H         10.20540       -0.95900       -4.03910
H          8.32490       -0.23340       -2.62320
H          6.57226       -0.28866        1.99562
H          4.23961        0.30731        1.70124
36

F          0.76283        1.09265       -0.85925
C          2.03586        0.61736       -0.85269
F          2.24148       -0.64876       -1.29121
C          3.02216        1.41286       -0.40353
C          4.47692        1.08479       -0.30571
C          5.41691        1.32224       -1.32945
C          6.76144        0.97753       -1.15665
C          7.20680        0.37720        0.03320
N          8.59540       -0.00040        0.20240
C          9.31520       -0.04450        1.36190
C         10.61370       -0.45130        1.11860
C         11.55820       -0.58800        2.13460
C         11.15230       -0.30940        3.44880
C          9.82690        0.08890        3.71700
C          8.89240        0.22190        2.67340
C          9.47220       -0.38510       -0.77160
C         10.71400       -0.66400       -0.23330
C         11.79450       -1.07090       -1.01530
C         11.59690       -1.18200       -2.40060
C         10.34170       -0.88180       -2.96830
C          9.26690       -0.47600       -2.15770
C          6.26943        0.14537        1.05341
C          4.92910        0.49874        0.88780
H          2.72020        2.40160       -0.06675
H          5.14556        1.76740       -2.27024
H          7.44484        1.15397       -1.97512
H         12.57140       -0.90400        1.92330
H         11.85940       -0.40980        4.26220
H          9.52410        0.28910        4.73690
H          7.87980        0.50950        2.90940
H         12.75860       -1.28840       -0.57510
H         12.41470       -1.49060       -3.03800
H         10.20540       -0.95900       -4.03910
H          8.32490       -0.23340       -2.62320
H          6.57226       -0.28866        1.99562
H          4.23961        0.30731        1.70124
36

F          1.27023        2.40410       -1.76764
C          2.59610        2.11373       -1.70197
F          3.36112        2.39821       -2.78430
C          3.08139        1.55085       -0.58171
C          4.49465        1.14852       -0.30903
C          5.08873        1.14558        0.96967
C          6.42298        0.75972        1.13493
C          7.20680        0.37720        0.03320
N          8.59540       -0.00040        0.20240
C          9.31520       -0.04450        1.36190
C         10.61370       -0.45130        1.11860
C         11.55820       -0.58800        2.13460
C         11.15230       -0.30940        3.44880
C          9.82690        0.08890        3.71700
C          8.89240        0.22190        2.67340
C          9.47220       -0.38510       -0.77160
C         10.71400       -0.66400       -0.23330
C         11.79450       -1.07090       -1.01530
C         11.59690       -1.18200       -2.40060
C         10.34170       -0.88180       -2.96830
C          9.26690       -0.47600       -2.15770
C          6.61173        0.37683       -1.23924
C          5.27704        0.75072       -1.40540
H          2.35811        1.36141        0.20772
H          4.55297        1.43695        1.85564
H          6.84720        0.79493        2.12833
H         12.57140       -0.90400        1.92330
H         11.85940       -0.40980        4.26220
H          9.52410        0.28910        4.73690
H          7.87980        0.50950        2.90940
H         12.75860       -1.28840       -0.57510
H         12.41470       -1.49060       -3.03800
H         10.20540       -0.95900       -4.03910
H          8.32490       -0.23340       -2.62320
H          7.16846        0.06371       -2.11094
H          4.85514        0.73175       -2.40307
36

F          1.29819        2.95107       -1.10551
C          2.62751        2.78034       -0.88118
F          3.43201        3.86641       -0.98534
C          3.08139        1.55085       -0.58171
C          4.49465        1.14852       -0.30903
C          5.08873        1.14558        0.96967
C          6.42298        0.75972        1.13493
C          7.20680        0.37720        0.03320
N          8.59540       -0.00040        0.20240
C          9.31520       -0.04450        1.36190
C         10.61370       -0.45130        1.11860
C         11.55820       -0.58800        2.13460
C         11.15230       -0.30940        3.44880
C          9.82690        0.08890        3.71700
C          8.89240        0.22190        2.67340
C          9.47220       -0.38510       -0.77160
C         10.71400       -0.66400       -0.23330
C         11.79450       -1.07090       -1.01530
C         11.59690       -1.18200       -2.40060
C         10.34170       -0.88180       -2.96830
C          9.26690       -0.47600       -2.15770
C          6.61173        0.37683       -1.23924
C          5.27704        0.75072       -1.40540
H          2.33279        0.76322       -0.54370
H          4.55297        1.43695        1.85564
H          6.84720        0.79493        2.12833
H         12.57140       -0.90400        1.92330
H         11.85940       -0.40980        4.26220
H          9.52410        0.28910        4.73690
H          7.87980        0.50950        2.90940
H         12.75860       -1.28840       -0.57510
H         12.41470       -1.49060       -3.03800
H         10.20540       -0.95900       -4.03910
H          8.32490       -0.23340       -2.62320
H          7.16846        0.06371       -2.11094
H          4.85514        0.73175       -2.40307
36

F          1.12589        1.84727       -1.82574
C          2.43975        1.50326       -1.78123
F          3.04836        1.17505       -2.94721
C          3.06658        1.49177       -0.59199
C          4.49381        1.13886       -0.32368
C          5.26505        1.68363        0.72343
C          6.59910        1.30185        0.89936
C          7.20680        0.37720        0.03320
N          8.59540       -0.00040        0.20240
C          9.31520       -0.04450        1.36190
C         10.61370       -0.45130        1.11860
C         11.55820       -0.58800        2.13460
C         11.15230       -0.30940        3.44880
C          9.82690        0.08890        3.71700
C          8.89240        0.22190        2.67340
C          9.47220       -0.38510       -0.77160
C         10.71400       -0.66400       -0.23330
C         11.79450       -1.07090       -1.01530
C         11.59690       -1.18200       -2.40060
C         10.34170       -0.88180       -2.96830
C          9.26690       -0.47600       -2.15770
C          6.43540       -0.16744       -1.00677
C          5.10048        0.20346       -1.17770
H          2.45960        1.76196        0.26870
H          4.86950        2.40438        1.41694
H          7.16229        1.76135        1.69919
H         12.57140       -0.90400        1.92330
H         11.85940       -0.40980        4.26220
H          9.52410        0.28910        4.73690
H          7.87980        0.50950        2.90940
H         12.75860       -1.28840       -0.57510
H         12.41470       -1.49060       -3.03800
H         10.20540       -0.95900       -4.03910
H          8.32490       -0.23340       -2.62320
H          6.85320       -0.90247       -1.67984
H          4.53938       -0.24401       -1.98928
36

F          1.26232        2.63622       -1.51377
C          2.60537        2.47152       -1.38868
F          3.41356        3.30333       -2.09051
C          3.06658        1.49177       -0.59199
C          4.49381        1.13886       -0.32368
C          5.26505        1.68363        0.72343
C          6.59910        1.30185        0.89936
C          7.20680        0.37720        0.03320
N          8.59540       -0.00040        0.20240
C          9.31520       -0.04450        1.36190
C         10.61370       -0.45130        1.11860
C         11.55820       -0.58800        2.13460
C         11.15230       -0.30940        3.44880
C          9.82690        0.08890        3.71700
C          8.89240        0.22190        2.67340
C          9.47220       -0.38510       -0.77160
C         10.71400       -0.66400       -0.23330
C         11.79450       -1.07090       -1.01530
C         11.59690       -1.18200       -2.40060
C         10.34170       -0.88180       -2.96830
C          9.26690       -0.47600       -2.15770
C          6.43540       -0.16744       -1.00677
C          5.10048        0.20346       -1.17770
H          2.31168        0.88583       -0.09684
H          4.86950        2.40438        1.41694
H          7.16229        1.76135        1.69919
H         12.57140       -0.90400        1.92330
H         11.85940       -0.40980        4.26220
H          9.52410        0.28910        4.73690
H          7.87980        0.50950        2.90940
H         12.75860       -1.28840       -0.57510
H         12.41470       -1.49060       -3.03800
H         10.20540       -0.95900       -4.03910
H          8.32490       -0.23340       -2.62320
H          6.85320       -0.90247       -1.67984
H          4.53938       -0.24401       -1.98928
36

F          1.14152        2.79730       -0.65936
C          2.45416        2.66074       -0.33550
F          3.08307        3.72462        0.22153
C          3.06658        1.49177       -0.59199
C          4.49381        1.13886       -0.32368
C          5.26505        1.68363        0.72343
C          6.59910        1.30185        0.89936
C          7.20680        0.37720        0.03320
N          8.59540       -0.00040        0.20240
C          9.31520       -0.04450        1.36190
C         10.61370       -0.45130        1.11860
C         11.55820       -0.58800        2.13460
C         11.15230       -0.30940        3.44880
C          9.82690        0.08890        3.71700
C          8.89240        0.22190        2.67340
C          9.47220       -0.38510       -0.77160
C         10.71400       -0.66400       -0.23330
C         11.79450       -1.07090       -1.01530
C         11.59690       -1.18200       -2.40060
C         10.34170       -0.88180       -2.96830
C          9.26690       -0.47600       -2.15770
C          6.43540       -0.16744       -1.00677
C          5.10048        0.20346       -1.17770
H          2.45166        0.72366       -1.05469
H          4.86950        2.40438        1.41694
H          7.16229        1.76135        1.69919
H         12.57140       -0.90400        1.92330
H         11.85940       -0.40980        4.26220
H          9.52410        0.28910        4.73690
H          7.87980        0.50950        2.90940
H         12.75860       -1.28840       -0.57510
H         12.41470       -1.49060       -3.03800
H         10.20540       -0.95900       -4.03910
H          8.32490       -0.23340       -2.62320
H          6.85320       -0.90247       -1.67984
H          4.53938       -0.24401       -1.98928
36

F          1.01557        2.55398       -0.30942
C          2.29869        2.35735        0.09245
F          2.74190        3.06077        1.16314
C          3.06658        1.49177       -0.59199
C          4.49381        1.13886       -0.32368
C          5.26505        1.68363        0.72343
C          6.59910        1.30185        0.89936
C          7.20680        0.37720        0.03320
N          8.59540       -0.00040        0.20240
C          9.31520       -0.04450        1.36190
C         10.61370       -0.45130        1.11860
C         11.55820       -0.58800        2.13460
C         11.15230       -0.30940        3.44880
C          9.82690        0.08890        3.71700
C          8.89240        0.22190        2.67340
C          9.47220       -0.38510       -0.77160
C         10.71400       -0.66400       -0.23330
C         11.79450       -1.07090       -1.01530
C         11.59690       -1.18200       -2.40060
C         10.34170       -0.88180       -2.96830
C          9.26690       -0.47600       -2.15770
C          6.43540       -0.16744       -1.00677
C          5.10048        0.20346       -1.17770
H          2.59329        1.00329       -1.44028
H          4.86950        2.40438        1.41694
H          7.16229        1.76135        1.69919
H         12.57140       -0.90400        1.92330
H         11.85940       -0.40980        4.26220
H          9.52410        0.28910        4.73690
H          7.87980        0.50950        2.90940
H         12.75860       -1.28840       -0.57510
H         12.41470       -1.49060       -3.03800
H         10.20540       -0.95900       -4.03910
H          8.32490       -0.23340       -2.62320
H          6.85320       -0.90247       -1.67984
H          4.53938       -0.24401       -1.98928
36

F          1.04274        2.18737       -1.35052
C          2.38083        1.97039       -1.44525
F          2.99882        2.31924       -2.60025
C          3.02216        1.41286       -0.40353
C          4.47692        1.08479       -0.30571
C          5.41691        1.32224       -1.32945
C          6.76144        0.97753       -1.15665
C          7.20680        0.37720        0.03320
N          8.59540       -0.00040        0.20240
C          9.31520       -0.04450        1.36190
C         10.61370       -0.45130        1.11860
C         11.55820       -0.58800        2.13460
C         11.15230       -0.30940        3.44880
C          9.82690        0.08890        3.71700
C          8.89240        0.22190        2.67340
C          9.47220       -0.38510       -0.77160
C         10.71400       -0.66400       -0.23330
C         11.79450       -1.07090       -1.01530
C         11.59690       -1.18200       -2.40060
C         10.34170       -0.88180       -2.96830
C          9.26690       -0.47600       -2.15770
C          6.26943        0.14537        1.05341
C          4.92910        0.49874        0.88780
H          2.40651        1.16718        0.45836
H          5.14556        1.76740       -2.27024
H          7.44484        1.15397       -1.97512
H         12.57140       -0.90400        1.92330
H         11.85940       -0.40980        4.26220
H          9.52410        0.28910        4.73690
H          7.87980        0.50950        2.90940
H         12.75860       -1.28840       -0.57510
H         12.41470       -1.49060       -3.03800
H         10.20540       -0.95900       -4.03910
H          8.32490       -0.23340       -2.62320
H          6.57226       -0.28866        1.99562
H          4.23961        0.30731        1.70124
36

F          0.94902        1.75612       -1.40304
C          2.26589        1.43999       -1.51468
F          2.74612        1.15411       -2.74970
C          3.02216        1.41286       -0.40353
C          4.47692        1.08479       -0.30571
C          5.41691        1.32224       -1.32945
C          6.76144        0.97753       -1.15665
C          7.20680        0.37720        0.03320
N          8.59540       -0.00040        0.20240
C          9.31520       -0.04450        1.36190
C         10.61370       -0.45130        1.11860
C         11.55820       -0.58800        2.13460
C         11.15230       -0.30940        3.44880
C          9.82690        0.08890        3.71700
C          8.89240        0.22190        2.67340
C          9.47220       -0.38510       -0.77160
C         10.71400       -0.66400       -0.23330
C         11.79450       -1.07090       -1.01530
C         11.59690       -1.18200       -2.40060
C         10.34170       -0.88180       -2.96830
C          9.26690       -0.47600       -2.15770
C          6.26943        0.14537        1.05341
C          4.92910        0.49874        0.88780
H          2.51044        1.64832        0.52648
H          5.14556        1.76740       -2.27024
H          7.44484        1.15397       -1.97512
H         12.57140       -0.90400        1.92330
H         11.85940       -0.40980        4.26220
H          9.52410        0.28910        4.73690
H          7.87980        0.50950        2.90940
H         12.75860       -1.28840       -0.57510
H         12.41470       -1.49060       -3.03800
H         10.20540       -0.95900       -4.03910
H          8.32490       -0.23340       -2.62320
H          6.57226       -0.28866        1.99562
H          4.23961        0.30731        1.70124
