
  xtb     02032211353D
 xtb: 6.4.1 (23d549d)
 30 32  0     0  0            999 V2000
   -5.9032    0.5470    0.0349 C   0  0  0  0  0  0  0  0  0  0  0  0
   -4.8738   -0.2915   -0.0075 C   0  0  0  0  0  0  0  0  0  0  0  0
   -3.4592    0.0570   -0.0063 C   0  0  0  0  0  0  0  0  0  0  0  0
   -3.0025    1.3765   -0.0037 C   0  0  0  0  0  0  0  0  0  0  0  0
   -1.6503    1.6885   -0.0017 C   0  0  0  0  0  0  0  0  0  0  0  0
   -0.7294    0.6592   -0.0024 C   0  0  0  0  0  0  0  0  0  0  0  0
   -1.1751   -0.6764   -0.0062 C   0  0  0  0  0  0  0  0  0  0  0  0
   -2.5157   -0.9824   -0.0090 C   0  0  0  0  0  0  0  0  0  0  0  0
   -0.0000   -1.5887   -0.0072 C   0  0  0  0  0  0  0  0  0  0  0  0
   -0.0001   -2.7976   -0.0100 O   0  0  0  0  0  0  0  0  0  0  0  0
    1.1750   -0.6765   -0.0035 C   0  0  0  0  0  0  0  0  0  0  0  0
    2.5157   -0.9825   -0.0026 C   0  0  0  0  0  0  0  0  0  0  0  0
    3.4592    0.0569    0.0013 C   0  0  0  0  0  0  0  0  0  0  0  0
    4.8737   -0.2917    0.0025 C   0  0  0  0  0  0  0  0  0  0  0  0
    5.9036    0.5473    0.0118 C   0  0  0  0  0  0  0  0  0  0  0  0
    3.0025    1.3764    0.0039 C   0  0  0  0  0  0  0  0  0  0  0  0
    1.6503    1.6884    0.0029 C   0  0  0  0  0  0  0  0  0  0  0  0
    0.7293    0.6591   -0.0007 C   0  0  0  0  0  0  0  0  0  0  0  0
   -6.9169    0.1850    0.0309 H   0  0  0  0  0  0  0  0  0  0  0  0
   -5.7880    1.6165    0.0766 H   0  0  0  0  0  0  0  0  0  0  0  0
   -5.0698   -1.3561   -0.0437 H   0  0  0  0  0  0  0  0  0  0  0  0
   -3.7189    2.1835   -0.0053 H   0  0  0  0  0  0  0  0  0  0  0  0
   -1.3313    2.7203   -0.0002 H   0  0  0  0  0  0  0  0  0  0  0  0
   -2.8350   -2.0145   -0.0122 H   0  0  0  0  0  0  0  0  0  0  0  0
    2.8350   -2.0146   -0.0048 H   0  0  0  0  0  0  0  0  0  0  0  0
    5.0695   -1.3569   -0.0045 H   0  0  0  0  0  0  0  0  0  0  0  0
    5.7888    1.6176    0.0199 H   0  0  0  0  0  0  0  0  0  0  0  0
    6.9171    0.1850    0.0119 H   0  0  0  0  0  0  0  0  0  0  0  0
    3.7188    2.1834    0.0064 H   0  0  0  0  0  0  0  0  0  0  0  0
    1.3312    2.7202    0.0048 H   0  0  0  0  0  0  0  0  0  0  0  0
  1  2  2  0  0  0  0
  2  3  1  0  0  0  0
  3  4  4  0  0  0  0
  4  5  4  0  0  0  0
  5  6  4  0  0  0  0
  6  7  4  0  0  0  0
  3  8  4  0  0  0  0
  7  8  4  0  0  0  0
  7  9  1  0  0  0  0
  9 10  2  0  0  0  0
  9 11  1  0  0  0  0
 11 12  4  0  0  0  0
 12 13  4  0  0  0  0
 13 14  1  0  0  0  0
 14 15  2  0  0  0  0
 13 16  4  0  0  0  0
 16 17  4  0  0  0  0
  6 18  1  0  0  0  0
 11 18  4  0  0  0  0
 17 18  4  0  0  0  0
  1 19  1  0  0  0  0
  1 20  1  0  0  0  0
  2 21  1  0  0  0  0
  4 22  1  0  0  0  0
  5 23  1  0  0  0  0
  8 24  1  0  0  0  0
 12 25  1  0  0  0  0
 14 26  1  0  0  0  0
 15 27  1  0  0  0  0
 15 28  1  0  0  0  0
 16 29  1  0  0  0  0
 17 30  1  0  0  0  0
M  END
