23

C          2.96163        0.64381       -1.11119
C          2.37260        0.09520       -0.04240
C          3.11770       -0.24700        1.18870
C          2.70150       -1.32290        1.98400
C          3.41150       -1.63860        3.15060
C          2.98400       -2.78880        4.02220
O          1.85006       -3.41424        3.48568
C          4.52900       -0.86960        3.50370
C          4.92230        0.19810        2.68670
C          6.10380        1.01040        3.05050
C          6.01661        2.10567        3.81355
N          4.20950        0.47740        1.56060
H          2.37262        0.87825       -1.99170
H          4.02412        0.86556       -1.12434
H          1.30517       -0.10328       -0.08639
H          1.83460       -1.90720        1.69770
H          2.77659       -2.46535        5.06751
H          3.80862       -3.53054        4.07303
H          1.08593       -2.80107        3.64751
H          5.08590       -1.10360        4.40350
H          7.08283        0.71215        2.68527
H          5.06551        2.45219        4.20563
H          6.91219        2.66993        4.05255
23

C          1.35294        0.96150       -0.04925
C          2.37260        0.09520       -0.04240
C          3.11770       -0.24700        1.18870
C          2.70150       -1.32290        1.98400
C          3.41150       -1.63860        3.15060
C          2.98400       -2.78880        4.02220
O          1.85006       -3.41424        3.48568
C          4.52900       -0.86960        3.50370
C          4.92230        0.19810        2.68670
C          6.10380        1.01040        3.05050
C          6.01661        2.10567        3.81355
N          4.20950        0.47740        1.56060
H          0.83594        1.17994       -0.97780
H          1.02186        1.45806        0.85742
H          2.65894       -0.37240       -0.98054
H          1.83460       -1.90720        1.69770
H          2.77659       -2.46535        5.06751
H          3.80862       -3.53054        4.07303
H          1.08593       -2.80107        3.64751
H          5.08590       -1.10360        4.40350
H          7.08283        0.71215        2.68527
H          5.06551        2.45219        4.20563
H          6.91219        2.66993        4.05255
23

C          2.96163        0.64381       -1.11119
C          2.37260        0.09520       -0.04240
C          3.11770       -0.24700        1.18870
C          2.70150       -1.32290        1.98400
C          3.41150       -1.63860        3.15060
C          2.98400       -2.78880        4.02220
O          4.09379       -3.35455        4.66496
C          4.52900       -0.86960        3.50370
C          4.92230        0.19810        2.68670
C          6.10380        1.01040        3.05050
C          6.83219        0.77028        4.14652
N          4.20950        0.47740        1.56060
H          2.37262        0.87825       -1.99170
H          4.02412        0.86556       -1.12434
H          1.30517       -0.10328       -0.08639
H          1.83460       -1.90720        1.69770
H          2.44399       -3.57231        3.44358
H          2.27826       -2.41555        4.79381
H          4.59477       -3.85936        3.97195
H          5.08590       -1.10360        4.40350
H          6.39519        1.83667        2.40767
H          6.58803       -0.04024        4.82612
H          7.69026        1.39507        4.37217
23

C          1.06108       -0.13302       -0.17685
C          2.37260        0.09520       -0.04240
C          3.11770       -0.24700        1.18870
C          2.70150       -1.32290        1.98400
C          3.41150       -1.63860        3.15060
C          2.98400       -2.78880        4.02220
O          4.09379       -3.35455        4.66496
C          4.52900       -0.86960        3.50370
C          4.92230        0.19810        2.68670
C          6.10380        1.01040        3.05050
C          6.01661        2.10567        3.81355
N          4.20950        0.47740        1.56060
H          0.55809        0.13458       -1.10021
H          0.47739       -0.58456        0.61917
H          2.90546        0.54882       -0.87368
H          1.83460       -1.90720        1.69770
H          2.44399       -3.57231        3.44358
H          2.27826       -2.41555        4.79381
H          4.59477       -3.85936        3.97195
H          5.08590       -1.10360        4.40350
H          7.08283        0.71215        2.68527
H          5.06551        2.45219        4.20563
H          6.91219        2.66993        4.05255
23

C          2.67594       -0.42760       -1.23609
C          2.37260        0.09520       -0.04240
C          3.11770       -0.24700        1.18870
C          2.70150       -1.32290        1.98400
C          3.41150       -1.63860        3.15060
C          2.98400       -2.78880        4.02220
O          3.03163       -3.99138        3.30360
C          4.52900       -0.86960        3.50370
C          4.92230        0.19810        2.68670
C          6.10380        1.01040        3.05050
C          6.01661        2.10567        3.81355
N          4.20950        0.47740        1.56060
H          2.10063       -0.14504       -2.11152
H          3.49115       -1.13394       -1.35755
H          1.54649        0.79849        0.01821
H          1.83460       -1.90720        1.69770
H          1.96201       -2.63912        4.43865
H          3.67569       -2.86398        4.88746
H          2.26311       -3.97558        2.67495
H          5.08590       -1.10360        4.40350
H          7.08283        0.71215        2.68527
H          5.06551        2.45219        4.20563
H          6.91219        2.66993        4.05255
23

C          2.67594       -0.42760       -1.23609
C          2.37260        0.09520       -0.04240
C          3.11770       -0.24700        1.18870
C          2.70150       -1.32290        1.98400
C          3.41150       -1.63860        3.15060
C          2.98400       -2.78880        4.02220
O          1.85006       -3.41424        3.48568
C          4.52900       -0.86960        3.50370
C          4.92230        0.19810        2.68670
C          6.10380        1.01040        3.05050
C          7.33842        0.71314        2.63003
N          4.20950        0.47740        1.56060
H          2.10063       -0.14504       -2.11152
H          3.49115       -1.13394       -1.35755
H          1.54649        0.79849        0.01821
H          1.83460       -1.90720        1.69770
H          2.77659       -2.46535        5.06751
H          3.80862       -3.53054        4.07303
H          1.08593       -2.80107        3.64751
H          5.08590       -1.10360        4.40350
H          5.97043        1.88234        3.68515
H          7.53236       -0.14603        1.99550
H          8.17451        1.33899        2.92470
23

C          1.29466       -0.58780       -0.44463
C          2.37260        0.09520       -0.04240
C          3.11770       -0.24700        1.18870
C          2.70150       -1.32290        1.98400
C          3.41150       -1.63860        3.15060
C          2.98400       -2.78880        4.02220
O          4.01123       -3.73764        4.11891
C          4.52900       -0.86960        3.50370
C          4.92230        0.19810        2.68670
C          6.10380        1.01040        3.05050
C          6.48514        1.19786        4.31892
N          4.20950        0.47740        1.56060
H          0.78153       -0.29941       -1.35608
H          0.91338       -1.43321        0.11941
H          2.70923        0.93196       -0.64842
H          1.83460       -1.90720        1.69770
H          2.05602       -3.27549        3.64499
H          2.75578       -2.40689        5.03946
H          4.04592       -4.20672        3.24436
H          5.08590       -1.10360        4.40350
H          6.68742        1.47706        2.26153
H          5.94029        0.75765        5.14824
H          7.35893        1.80354        4.53617
23

C          2.67594       -0.42760       -1.23609
C          2.37260        0.09520       -0.04240
C          3.11770       -0.24700        1.18870
C          2.70150       -1.32290        1.98400
C          3.41150       -1.63860        3.15060
C          2.98400       -2.78880        4.02220
O          3.03163       -3.99138        3.30360
C          4.52900       -0.86960        3.50370
C          4.92230        0.19810        2.68670
C          6.10380        1.01040        3.05050
C          7.33842        0.71314        2.63003
N          4.20950        0.47740        1.56060
H          2.10063       -0.14504       -2.11152
H          3.49115       -1.13394       -1.35755
H          1.54649        0.79849        0.01821
H          1.83460       -1.90720        1.69770
H          1.96201       -2.63912        4.43865
H          3.67569       -2.86398        4.88746
H          2.26311       -3.97558        2.67495
H          5.08590       -1.10360        4.40350
H          5.97043        1.88234        3.68515
H          7.53236       -0.14603        1.99550
H          8.17451        1.33899        2.92470
23

C          1.06108       -0.13302       -0.17685
C          2.37260        0.09520       -0.04240
C          3.11770       -0.24700        1.18870
C          2.70150       -1.32290        1.98400
C          3.41150       -1.63860        3.15060
C          2.98400       -2.78880        4.02220
O          3.03163       -3.99138        3.30360
C          4.52900       -0.86960        3.50370
C          4.92230        0.19810        2.68670
C          6.10380        1.01040        3.05050
C          6.51661        2.04923        2.31574
N          4.20950        0.47740        1.56060
H          0.55809        0.13458       -1.10021
H          0.47739       -0.58456        0.61917
H          2.90546        0.54882       -0.87368
H          1.83460       -1.90720        1.69770
H          1.96201       -2.63912        4.43865
H          3.67569       -2.86398        4.88746
H          2.26311       -3.97558        2.67495
H          5.08590       -1.10360        4.40350
H          6.66331        0.75727        3.94701
H          5.99820        2.34770        1.40989
H          7.39047        2.61455        2.62291
23

C          1.06108       -0.13302       -0.17685
C          2.37260        0.09520       -0.04240
C          3.11770       -0.24700        1.18870
C          2.70150       -1.32290        1.98400
C          3.41150       -1.63860        3.15060
C          2.98400       -2.78880        4.02220
O          1.85006       -3.41424        3.48568
C          4.52900       -0.86960        3.50370
C          4.92230        0.19810        2.68670
C          6.10380        1.01040        3.05050
C          6.51661        2.04923        2.31574
N          4.20950        0.47740        1.56060
H          0.55809        0.13458       -1.10021
H          0.47739       -0.58456        0.61917
H          2.90546        0.54882       -0.87368
H          1.83460       -1.90720        1.69770
H          2.77659       -2.46535        5.06751
H          3.80862       -3.53054        4.07303
H          1.08593       -2.80107        3.64751
H          5.08590       -1.10360        4.40350
H          6.66331        0.75727        3.94701
H          5.99820        2.34770        1.40989
H          7.39047        2.61455        2.62291
