
 OpenBabel02032210593D

 20 20  0  0  0  0  0  0  0  0999 V2000
    1.0975   -0.0466   -0.1184 C   0  0  0  0  0  0  0  0  0  0  0  0
    2.3336    0.3412    0.2223 C   0  0  0  0  0  0  0  0  0  0  0  0
    3.1456   -0.2495    1.3243 C   0  0  0  0  0  0  0  0  0  0  0  0
    4.4198    0.2878    1.5634 C   0  0  0  0  0  0  0  0  0  0  0  0
    5.2273   -0.2210    2.5796 C   0  0  0  0  0  0  0  0  0  0  0  0
    4.7765   -1.2756    3.3725 C   0  0  0  0  0  0  0  0  0  0  0  0
    3.5080   -1.8386    3.1620 C   0  0  0  0  0  0  0  0  0  0  0  0
    3.0879   -2.9639    4.0449 C   0  0  0  0  0  0  0  0  0  0  0  0
    1.9086   -3.5967    3.9801 C   0  0  0  0  0  0  0  0  0  0  0  0
    2.6948   -1.3173    2.1316 C   0  0  0  0  0  0  0  0  0  0  0  0
    0.5907    0.4516   -0.9392 H   0  0  0  0  0  0  0  0  0  0  0  0
    0.5638   -0.8399    0.3868 H   0  0  0  0  0  0  0  0  0  0  0  0
    2.7717    1.1522   -0.3537 H   0  0  0  0  0  0  0  0  0  0  0  0
    4.7933    1.1075    0.9614 H   0  0  0  0  0  0  0  0  0  0  0  0
    6.2074    0.2037    2.7537 H   0  0  0  0  0  0  0  0  0  0  0  0
    5.4231   -1.6534    4.1555 H   0  0  0  0  0  0  0  0  0  0  0  0
    3.7875   -3.3031    4.8044 H   0  0  0  0  0  0  0  0  0  0  0  0
    1.1372   -3.3423    3.2662 H   0  0  0  0  0  0  0  0  0  0  0  0
    1.7005   -4.4065    4.6722 H   0  0  0  0  0  0  0  0  0  0  0  0
    1.7221   -1.7394    1.9585 H   0  0  0  0  0  0  0  0  0  0  0  0
  1  2  2  0  0  0  0
  1 11  1  0  0  0  0
  1 12  1  0  0  0  0
  2  3  1  0  0  0  0
  2 13  1  0  0  0  0
  3  4  1  0  0  0  0
  3 10  2  0  0  0  0
  4  5  2  0  0  0  0
  4 14  1  0  0  0  0
  5  6  1  0  0  0  0
  5 15  1  0  0  0  0
  6  7  2  0  0  0  0
  6 16  1  0  0  0  0
  7  8  1  0  0  0  0
  7 10  1  0  0  0  0
  8  9  2  0  0  0  0
  8 17  1  0  0  0  0
  9 18  1  0  0  0  0
  9 19  1  0  0  0  0
 10 20  1  0  0  0  0
M  END
