
  xtb     02012214123D
 xtb: 6.4.1 (23d549d)
 22 23  0     0  0            999 V2000
    0.9431   -0.1416   -0.0526 c   0  0  0  0  0  0  0  0  0  0  0  0
    2.4390   -0.0559   -0.0592 c   0  0  0  0  0  0  0  0  0  0  0  0
    3.2204   -1.2061   -0.0644 c   0  0  0  0  0  0  0  0  0  0  0  0
    4.6153   -1.1834   -0.0707 c   0  0  0  0  0  0  0  0  0  0  0  0
    5.4304   -2.4405   -0.0762 c   0  0  0  0  0  0  0  0  0  0  0  0
    5.2099    0.0665   -0.0716 c   0  0  0  0  0  0  0  0  0  0  0  0
    4.4436    1.2423   -0.0664 c   0  0  0  0  0  0  0  0  0  0  0  0
    3.0614    1.1901   -0.0602 c   0  0  0  0  0  0  0  0  0  0  0  0
    5.3621    2.3839   -0.0691 c   0  0  0  0  0  0  0  0  0  0  0  0
    5.1262    3.5642   -0.0664 o   0  0  0  0  0  0  0  0  0  0  0  0
    6.7759    1.7370   -0.0765 c   0  0  0  0  0  0  0  0  0  0  0  0
    7.8488    2.2826   -0.0806 o   0  0  0  0  0  0  0  0  0  0  0  0
    6.5632    0.3870   -0.0774 n   0  0  0  0  0  0  0  0  0  0  0  0
    0.6090   -1.1756   -0.0520 h   0  0  0  0  0  0  0  0  0  0  0  0
    0.5325    0.3566   -0.9296 h   0  0  0  0  0  0  0  0  0  0  0  0
    0.5404    0.3550    0.8290 h   0  0  0  0  0  0  0  0  0  0  0  0
    2.7271   -2.1680   -0.0635 h   0  0  0  0  0  0  0  0  0  0  0  0
    4.7864   -3.3153   -0.0742 h   0  0  0  0  0  0  0  0  0  0  0  0
    6.0732   -2.4832    0.8029 h   0  0  0  0  0  0  0  0  0  0  0  0
    6.0645   -2.4810   -0.9617 h   0  0  0  0  0  0  0  0  0  0  0  0
    2.4848    2.1020   -0.0563 h   0  0  0  0  0  0  0  0  0  0  0  0
    7.3060   -0.2945   -0.0818 h   0  0  0  0  0  0  0  0  0  0  0  0
  1  2  1  0  0  0  0
  2  3  4  0  0  0  0
  3  4  4  0  0  0  0
  4  5  1  0  0  0  0
  4  6  4  0  0  0  0
  6  7  4  0  0  0  0
  2  8  4  0  0  0  0
  7  8  4  0  0  0  0
  7  9  1  0  0  0  0
  9 10  2  0  0  0  0
  9 11  1  0  0  0  0
 11 12  2  0  0  0  0
  6 13  1  0  0  0  0
 11 13  1  0  0  0  0
  1 14  1  0  0  0  0
  1 15  1  0  0  0  0
  1 16  1  0  0  0  0
  3 17  1  0  0  0  0
  5 18  1  0  0  0  0
  5 19  1  0  0  0  0
  5 20  1  0  0  0  0
  8 21  1  0  0  0  0
 13 22  1  0  0  0  0
M  END
