
  xtb     02032211363D
 xtb: 6.4.1 (23d549d)
 25 25  0     0  0            999 V2000
   -3.9562   -2.2134   -0.1376 C   0  0  0  0  0  0  0  0  0  0  0  0
   -2.6354   -2.3056   -0.0228 C   0  0  0  0  0  0  0  0  0  0  0  0
   -1.7554   -1.1667    0.0059 C   0  0  0  0  0  0  0  0  0  0  0  0
   -0.4617   -1.2101    0.1172 N   0  0  0  0  0  0  0  0  0  0  0  0
   -0.0360    0.0857    0.1011 C   0  0  0  0  0  0  0  0  0  0  0  0
    1.3984    0.3887    0.2096 C   0  0  0  0  0  0  0  0  0  0  0  0
    1.8834    1.4978    0.1901 O   0  0  0  0  0  0  0  0  0  0  0  0
    2.1070   -0.7284    0.3457 O   0  0  0  0  0  0  0  0  0  0  0  0
    3.5222   -0.5891    0.4449 C   0  0  0  0  0  0  0  0  0  0  0  0
    4.1659   -0.4592   -0.9289 C   0  0  0  0  0  0  0  0  0  0  0  0
   -1.1505    0.9103   -0.0271 C   0  0  0  0  0  0  0  0  0  0  0  0
   -1.4140    2.3224   -0.1065 C   0  0  0  0  0  0  0  0  0  0  0  0
   -0.5076    3.2950   -0.0730 C   0  0  0  0  0  0  0  0  0  0  0  0
   -2.2298    0.0963   -0.0851 O   0  0  0  0  0  0  0  0  0  0  0  0
   -4.5818   -3.0880   -0.1553 H   0  0  0  0  0  0  0  0  0  0  0  0
   -4.4476   -1.2582   -0.2171 H   0  0  0  0  0  0  0  0  0  0  0  0
   -2.1250   -3.2531    0.0581 H   0  0  0  0  0  0  0  0  0  0  0  0
    3.8592   -1.4950    0.9526 H   0  0  0  0  0  0  0  0  0  0  0  0
    3.7537    0.2911    1.0547 H   0  0  0  0  0  0  0  0  0  0  0  0
    3.8903   -1.3064   -1.5521 H   0  0  0  0  0  0  0  0  0  0  0  0
    5.2468   -0.4291   -0.8245 H   0  0  0  0  0  0  0  0  0  0  0  0
    3.8325    0.4571   -1.4099 H   0  0  0  0  0  0  0  0  0  0  0  0
   -2.4693    2.5474   -0.2018 H   0  0  0  0  0  0  0  0  0  0  0  0
    0.5428    3.0850    0.0208 H   0  0  0  0  0  0  0  0  0  0  0  0
   -0.8081    4.3265   -0.1400 H   0  0  0  0  0  0  0  0  0  0  0  0
  1  2  2  0  0  0  0
  2  3  1  0  0  0  0
  3  4  2  0  0  0  0
  4  5  4  0  0  0  0
  5  6  1  0  0  0  0
  6  7  2  0  0  0  0
  6  8  1  0  0  0  0
  8  9  1  0  0  0  0
  9 10  1  0  0  0  0
  5 11  4  0  0  0  0
 11 12  1  0  0  0  0
 12 13  2  0  0  0  0
  3 14  1  0  0  0  0
 11 14  1  0  0  0  0
  1 15  1  0  0  0  0
  1 16  1  0  0  0  0
  2 17  1  0  0  0  0
  9 18  1  0  0  0  0
  9 19  1  0  0  0  0
 10 20  1  0  0  0  0
 10 21  1  0  0  0  0
 10 22  1  0  0  0  0
 12 23  1  0  0  0  0
 13 24  1  0  0  0  0
 13 25  1  0  0  0  0
M  END
